# CMAKE generated file: DO NOT EDIT!
# Generated by "MinGW Makefiles" Generator, CMake Version 3.16

# Default target executed when no arguments are given to make.
default_target: all

.PHONY : default_target

# Allow only one "make -f Makefile2" at a time, but pass parallelism.
.NOTPARALLEL:


#=============================================================================
# Special targets provided by cmake.

# Disable implicit rules so canonical targets will work.
.SUFFIXES:


# Remove some rules from gmake that .SUFFIXES does not remove.
SUFFIXES =

.SUFFIXES: .hpux_make_needs_suffix_list


# Suppress display of executed commands.
$(VERBOSE).SILENT:


# A target that is always out of date.
cmake_force:

.PHONY : cmake_force

#=============================================================================
# Set environment variables for the build.

SHELL = cmd.exe

# The CMake executable.
CMAKE_COMMAND = "C:\Program Files\CMake\bin\cmake.exe"

# The command to remove a file.
RM = "C:\Program Files\CMake\bin\cmake.exe" -E remove -f

# Escaping for special characters.
EQUALS = =

# The top-level source directory on which CMake was run.
CMAKE_SOURCE_DIR = C:\Users\valentinc\Workspace\OpenFAST\SuperController\DTUWEC-SC-mpi

# The top-level build directory on which CMake was run.
CMAKE_BINARY_DIR = C:\Users\valentinc\Workspace\OpenFAST\SuperController\DTUWEC-SC-mpi\custom-build

#=============================================================================
# Targets provided globally by CMake.

# Special rule for the target edit_cache
edit_cache:
	@$(CMAKE_COMMAND) -E cmake_echo_color --switch=$(COLOR) --cyan "Running CMake cache editor..."
	"C:\Program Files\CMake\bin\cmake-gui.exe" -S$(CMAKE_SOURCE_DIR) -B$(CMAKE_BINARY_DIR)
.PHONY : edit_cache

# Special rule for the target edit_cache
edit_cache/fast: edit_cache

.PHONY : edit_cache/fast

# Special rule for the target rebuild_cache
rebuild_cache:
	@$(CMAKE_COMMAND) -E cmake_echo_color --switch=$(COLOR) --cyan "Running CMake to regenerate build system..."
	"C:\Program Files\CMake\bin\cmake.exe" -S$(CMAKE_SOURCE_DIR) -B$(CMAKE_BINARY_DIR)
.PHONY : rebuild_cache

# Special rule for the target rebuild_cache
rebuild_cache/fast: rebuild_cache

.PHONY : rebuild_cache/fast

# The main all target
all: cmake_check_build_system
	$(CMAKE_COMMAND) -E cmake_progress_start C:\Users\valentinc\Workspace\OpenFAST\SuperController\DTUWEC-SC-mpi\custom-build\CMakeFiles C:\Users\valentinc\Workspace\OpenFAST\SuperController\DTUWEC-SC-mpi\custom-build\CMakeFiles\progress.marks
	$(MAKE) -f CMakeFiles\Makefile2 all
	$(CMAKE_COMMAND) -E cmake_progress_start C:\Users\valentinc\Workspace\OpenFAST\SuperController\DTUWEC-SC-mpi\custom-build\CMakeFiles 0
.PHONY : all

# The main clean target
clean:
	$(MAKE) -f CMakeFiles\Makefile2 clean
.PHONY : clean

# The main clean target
clean/fast: clean

.PHONY : clean/fast

# Prepare targets for installation.
preinstall: all
	$(MAKE) -f CMakeFiles\Makefile2 preinstall
.PHONY : preinstall

# Prepare targets for installation.
preinstall/fast:
	$(MAKE) -f CMakeFiles\Makefile2 preinstall
.PHONY : preinstall/fast

# clear depends
depend:
	$(CMAKE_COMMAND) -S$(CMAKE_SOURCE_DIR) -B$(CMAKE_BINARY_DIR) --check-build-system CMakeFiles\Makefile.cmake 1
.PHONY : depend

#=============================================================================
# Target rules for targets named dtu_we_controller

# Build rule for target.
dtu_we_controller: cmake_check_build_system
	$(MAKE) -f CMakeFiles\Makefile2 dtu_we_controller
.PHONY : dtu_we_controller

# fast build rule for target.
dtu_we_controller/fast:
	$(MAKE) -f src\dtu_we_controller\CMakeFiles\dtu_we_controller.dir\build.make src/dtu_we_controller/CMakeFiles/dtu_we_controller.dir/build
.PHONY : dtu_we_controller/fast

#=============================================================================
# Target rules for targets named DTUWEC_for_OpenFAST

# Build rule for target.
DTUWEC_for_OpenFAST: cmake_check_build_system
	$(MAKE) -f CMakeFiles\Makefile2 DTUWEC_for_OpenFAST
.PHONY : DTUWEC_for_OpenFAST

# fast build rule for target.
DTUWEC_for_OpenFAST/fast:
	$(MAKE) -f src\dtu_we_controller_bladed\CMakeFiles\DTUWEC_for_OpenFAST.dir\build.make src/dtu_we_controller_bladed/CMakeFiles/DTUWEC_for_OpenFAST.dir/build
.PHONY : DTUWEC_for_OpenFAST/fast

#=============================================================================
# Target rules for targets named cyclic_pitch_controller

# Build rule for target.
cyclic_pitch_controller: cmake_check_build_system
	$(MAKE) -f CMakeFiles\Makefile2 cyclic_pitch_controller
.PHONY : cyclic_pitch_controller

# fast build rule for target.
cyclic_pitch_controller/fast:
	$(MAKE) -f src\individual_pitch_controller\CMakeFiles\cyclic_pitch_controller.dir\build.make src/individual_pitch_controller/CMakeFiles/cyclic_pitch_controller.dir/build
.PHONY : cyclic_pitch_controller/fast

#=============================================================================
# Target rules for targets named individual_flap_controller

# Build rule for target.
individual_flap_controller: cmake_check_build_system
	$(MAKE) -f CMakeFiles\Makefile2 individual_flap_controller
.PHONY : individual_flap_controller

# fast build rule for target.
individual_flap_controller/fast:
	$(MAKE) -f src\flap_controller_individual_aep_u_f\CMakeFiles\individual_flap_controller.dir\build.make src/flap_controller_individual_aep_u_f/CMakeFiles/individual_flap_controller.dir/build
.PHONY : individual_flap_controller/fast

#=============================================================================
# Target rules for targets named flap_controller_cyclic

# Build rule for target.
flap_controller_cyclic: cmake_check_build_system
	$(MAKE) -f CMakeFiles\Makefile2 flap_controller_cyclic
.PHONY : flap_controller_cyclic

# fast build rule for target.
flap_controller_cyclic/fast:
	$(MAKE) -f src\flap_controller_cyclic\CMakeFiles\flap_controller_cyclic.dir\build.make src/flap_controller_cyclic/CMakeFiles/flap_controller_cyclic.dir/build
.PHONY : flap_controller_cyclic/fast

# Help Target
help:
	@echo The following are some of the valid targets for this Makefile:
	@echo ... all (the default if no target is provided)
	@echo ... clean
	@echo ... depend
	@echo ... edit_cache
	@echo ... rebuild_cache
	@echo ... dtu_we_controller
	@echo ... DTUWEC_for_OpenFAST
	@echo ... cyclic_pitch_controller
	@echo ... individual_flap_controller
	@echo ... flap_controller_cyclic
.PHONY : help



#=============================================================================
# Special targets to cleanup operation of make.

# Special rule to run CMake to check the build system integrity.
# No rule that depends on this can have commands that come from listfiles
# because they might be regenerated.
cmake_check_build_system:
	$(CMAKE_COMMAND) -S$(CMAKE_SOURCE_DIR) -B$(CMAKE_BINARY_DIR) --check-build-system CMakeFiles\Makefile.cmake 0
.PHONY : cmake_check_build_system

