# CMAKE generated file: DO NOT EDIT!
# Generated by "MinGW Makefiles" Generator, CMake Version 3.16

# compile Fortran with C:/Users/valentinc/msys2/mingw64/bin/gfortran.exe
# compile RC with C:/Users/valentinc/msys2/mingw64/bin/windres.exe
Fortran_FLAGS =   -cpp -ffree-form -ffree-line-length-none -fPIC -fcray-pointer

Fortran_DEFINES = -DDTUWEC_for_OpenFAST_EXPORTS -D_WIN32 -D_WIN64

Fortran_INCLUDES = @CMakeFiles/DTUWEC_for_OpenFAST.dir/includes_Fortran.rsp

RC_FLAGS =  

RC_DEFINES = -DDTUWEC_for_OpenFAST_EXPORTS -D_WIN32 -D_WIN64

RC_INCLUDES = -IC:\Users\valentinc\Workspace\OpenFAST\SuperController\DTUWEC-SC-mpi\src\dtu_we_controller_bladed -IC:\Users\valentinc\Workspace\OpenFAST\SuperController\DTUWEC-SC-mpi\custom-build\src\dtu_we_controller_bladed -IC:\Users\valentinc\Workspace\OpenFAST\SuperController\DTUWEC-SC-mpi\utils\portability 

