"C:\Program Files\CMake\bin\cmake.exe" -E remove -f CMakeFiles\DTUWEC_for_OpenFAST.dir/objects.a
C:\Users\valentinc\msys2\mingw64\x86_64-w64-mingw32\bin\ar.exe cr CMakeFiles\DTUWEC_for_OpenFAST.dir/objects.a @CMakeFiles\DTUWEC_for_OpenFAST.dir\objects1.rsp
C:\Users\valentinc\msys2\mingw64\bin\gfortran.exe  -O3 -march=native -static -fcheck=bounds  -shared -o DTUWEC_for_OpenFAST_64.dll -Wl,--out-implib,libDTUWEC_for_OpenFAST.dll.a -Wl,--major-image-version,0,--minor-image-version,0 -Wl,--whole-archive CMakeFiles\DTUWEC_for_OpenFAST.dir/objects.a -Wl,--no-whole-archive @CMakeFiles\DTUWEC_for_OpenFAST.dir\linklibs.rsp
