# CMAKE generated file: DO NOT EDIT!
# Generated by "MinGW Makefiles" Generator, CMake Version 3.16

# Delete rule output on recipe failure.
.DELETE_ON_ERROR:


#=============================================================================
# Special targets provided by cmake.

# Disable implicit rules so canonical targets will work.
.SUFFIXES:


# Remove some rules from gmake that .SUFFIXES does not remove.
SUFFIXES =

.SUFFIXES: .hpux_make_needs_suffix_list


# Suppress display of executed commands.
$(VERBOSE).SILENT:


# A target that is always out of date.
cmake_force:

.PHONY : cmake_force

#=============================================================================
# Set environment variables for the build.

SHELL = cmd.exe

# The CMake executable.
CMAKE_COMMAND = "C:\Program Files\CMake\bin\cmake.exe"

# The command to remove a file.
RM = "C:\Program Files\CMake\bin\cmake.exe" -E remove -f

# Escaping for special characters.
EQUALS = =

# The top-level source directory on which CMake was run.
CMAKE_SOURCE_DIR = C:\Users\valentinc\Workspace\OpenFAST\SuperController\DTUWEC-SC-mpi

# The top-level build directory on which CMake was run.
CMAKE_BINARY_DIR = C:\Users\valentinc\Workspace\OpenFAST\SuperController\DTUWEC-SC-mpi\custom-build

# Include any dependencies generated for this target.
include src/dtu_we_controller_bladed/CMakeFiles/DTUWEC_for_FASTfarm.dir/depend.make

# Include the progress variables for this target.
include src/dtu_we_controller_bladed/CMakeFiles/DTUWEC_for_FASTfarm.dir/progress.make

# Include the compile flags for this target's objects.
include src/dtu_we_controller_bladed/CMakeFiles/DTUWEC_for_FASTfarm.dir/flags.make

src/dtu_we_controller_bladed/CMakeFiles/DTUWEC_for_FASTfarm.dir/__/dtu_we_controller/dtu_we_controller.f90.obj: src/dtu_we_controller_bladed/CMakeFiles/DTUWEC_for_FASTfarm.dir/flags.make
src/dtu_we_controller_bladed/CMakeFiles/DTUWEC_for_FASTfarm.dir/__/dtu_we_controller/dtu_we_controller.f90.obj: src/dtu_we_controller_bladed/CMakeFiles/DTUWEC_for_FASTfarm.dir/includes_Fortran.rsp
src/dtu_we_controller_bladed/CMakeFiles/DTUWEC_for_FASTfarm.dir/__/dtu_we_controller/dtu_we_controller.f90.obj: ../src/dtu_we_controller/dtu_we_controller.f90
	@$(CMAKE_COMMAND) -E cmake_echo_color --switch=$(COLOR) --green --progress-dir=C:\Users\valentinc\Workspace\OpenFAST\SuperController\DTUWEC-SC-mpi\custom-build\CMakeFiles --progress-num=$(CMAKE_PROGRESS_1) "Building Fortran object src/dtu_we_controller_bladed/CMakeFiles/DTUWEC_for_FASTfarm.dir/__/dtu_we_controller/dtu_we_controller.f90.obj"
	cd /d C:\Users\valentinc\Workspace\OpenFAST\SuperController\DTUWEC-SC-mpi\custom-build\src\dtu_we_controller_bladed && C:\Users\valentinc\msys2\mingw64\bin\gfortran.exe $(Fortran_DEFINES) $(Fortran_INCLUDES) $(Fortran_FLAGS) -c C:\Users\valentinc\Workspace\OpenFAST\SuperController\DTUWEC-SC-mpi\src\dtu_we_controller\dtu_we_controller.f90 -o CMakeFiles\DTUWEC_for_FASTfarm.dir\__\dtu_we_controller\dtu_we_controller.f90.obj

src/dtu_we_controller_bladed/CMakeFiles/DTUWEC_for_FASTfarm.dir/__/dtu_we_controller/dtu_we_controller.f90.i: cmake_force
	@$(CMAKE_COMMAND) -E cmake_echo_color --switch=$(COLOR) --green "Preprocessing Fortran source to CMakeFiles/DTUWEC_for_FASTfarm.dir/__/dtu_we_controller/dtu_we_controller.f90.i"
	cd /d C:\Users\valentinc\Workspace\OpenFAST\SuperController\DTUWEC-SC-mpi\custom-build\src\dtu_we_controller_bladed && C:\Users\valentinc\msys2\mingw64\bin\gfortran.exe $(Fortran_DEFINES) $(Fortran_INCLUDES) $(Fortran_FLAGS) -E C:\Users\valentinc\Workspace\OpenFAST\SuperController\DTUWEC-SC-mpi\src\dtu_we_controller\dtu_we_controller.f90 > CMakeFiles\DTUWEC_for_FASTfarm.dir\__\dtu_we_controller\dtu_we_controller.f90.i

src/dtu_we_controller_bladed/CMakeFiles/DTUWEC_for_FASTfarm.dir/__/dtu_we_controller/dtu_we_controller.f90.s: cmake_force
	@$(CMAKE_COMMAND) -E cmake_echo_color --switch=$(COLOR) --green "Compiling Fortran source to assembly CMakeFiles/DTUWEC_for_FASTfarm.dir/__/dtu_we_controller/dtu_we_controller.f90.s"
	cd /d C:\Users\valentinc\Workspace\OpenFAST\SuperController\DTUWEC-SC-mpi\custom-build\src\dtu_we_controller_bladed && C:\Users\valentinc\msys2\mingw64\bin\gfortran.exe $(Fortran_DEFINES) $(Fortran_INCLUDES) $(Fortran_FLAGS) -S C:\Users\valentinc\Workspace\OpenFAST\SuperController\DTUWEC-SC-mpi\src\dtu_we_controller\dtu_we_controller.f90 -o CMakeFiles\DTUWEC_for_FASTfarm.dir\__\dtu_we_controller\dtu_we_controller.f90.s

src/dtu_we_controller_bladed/CMakeFiles/DTUWEC_for_FASTfarm.dir/__/dtu_we_controller/dtu_we_controller_fcns.f90.obj: src/dtu_we_controller_bladed/CMakeFiles/DTUWEC_for_FASTfarm.dir/flags.make
src/dtu_we_controller_bladed/CMakeFiles/DTUWEC_for_FASTfarm.dir/__/dtu_we_controller/dtu_we_controller_fcns.f90.obj: src/dtu_we_controller_bladed/CMakeFiles/DTUWEC_for_FASTfarm.dir/includes_Fortran.rsp
src/dtu_we_controller_bladed/CMakeFiles/DTUWEC_for_FASTfarm.dir/__/dtu_we_controller/dtu_we_controller_fcns.f90.obj: ../src/dtu_we_controller/dtu_we_controller_fcns.f90
	@$(CMAKE_COMMAND) -E cmake_echo_color --switch=$(COLOR) --green --progress-dir=C:\Users\valentinc\Workspace\OpenFAST\SuperController\DTUWEC-SC-mpi\custom-build\CMakeFiles --progress-num=$(CMAKE_PROGRESS_2) "Building Fortran object src/dtu_we_controller_bladed/CMakeFiles/DTUWEC_for_FASTfarm.dir/__/dtu_we_controller/dtu_we_controller_fcns.f90.obj"
	cd /d C:\Users\valentinc\Workspace\OpenFAST\SuperController\DTUWEC-SC-mpi\custom-build\src\dtu_we_controller_bladed && C:\Users\valentinc\msys2\mingw64\bin\gfortran.exe $(Fortran_DEFINES) $(Fortran_INCLUDES) $(Fortran_FLAGS) -c C:\Users\valentinc\Workspace\OpenFAST\SuperController\DTUWEC-SC-mpi\src\dtu_we_controller\dtu_we_controller_fcns.f90 -o CMakeFiles\DTUWEC_for_FASTfarm.dir\__\dtu_we_controller\dtu_we_controller_fcns.f90.obj

src/dtu_we_controller_bladed/CMakeFiles/DTUWEC_for_FASTfarm.dir/__/dtu_we_controller/dtu_we_controller_fcns.f90.i: cmake_force
	@$(CMAKE_COMMAND) -E cmake_echo_color --switch=$(COLOR) --green "Preprocessing Fortran source to CMakeFiles/DTUWEC_for_FASTfarm.dir/__/dtu_we_controller/dtu_we_controller_fcns.f90.i"
	cd /d C:\Users\valentinc\Workspace\OpenFAST\SuperController\DTUWEC-SC-mpi\custom-build\src\dtu_we_controller_bladed && C:\Users\valentinc\msys2\mingw64\bin\gfortran.exe $(Fortran_DEFINES) $(Fortran_INCLUDES) $(Fortran_FLAGS) -E C:\Users\valentinc\Workspace\OpenFAST\SuperController\DTUWEC-SC-mpi\src\dtu_we_controller\dtu_we_controller_fcns.f90 > CMakeFiles\DTUWEC_for_FASTfarm.dir\__\dtu_we_controller\dtu_we_controller_fcns.f90.i

src/dtu_we_controller_bladed/CMakeFiles/DTUWEC_for_FASTfarm.dir/__/dtu_we_controller/dtu_we_controller_fcns.f90.s: cmake_force
	@$(CMAKE_COMMAND) -E cmake_echo_color --switch=$(COLOR) --green "Compiling Fortran source to assembly CMakeFiles/DTUWEC_for_FASTfarm.dir/__/dtu_we_controller/dtu_we_controller_fcns.f90.s"
	cd /d C:\Users\valentinc\Workspace\OpenFAST\SuperController\DTUWEC-SC-mpi\custom-build\src\dtu_we_controller_bladed && C:\Users\valentinc\msys2\mingw64\bin\gfortran.exe $(Fortran_DEFINES) $(Fortran_INCLUDES) $(Fortran_FLAGS) -S C:\Users\valentinc\Workspace\OpenFAST\SuperController\DTUWEC-SC-mpi\src\dtu_we_controller\dtu_we_controller_fcns.f90 -o CMakeFiles\DTUWEC_for_FASTfarm.dir\__\dtu_we_controller\dtu_we_controller_fcns.f90.s

src/dtu_we_controller_bladed/CMakeFiles/DTUWEC_for_FASTfarm.dir/__/dtu_we_controller/floating_controller.f90.obj: src/dtu_we_controller_bladed/CMakeFiles/DTUWEC_for_FASTfarm.dir/flags.make
src/dtu_we_controller_bladed/CMakeFiles/DTUWEC_for_FASTfarm.dir/__/dtu_we_controller/floating_controller.f90.obj: src/dtu_we_controller_bladed/CMakeFiles/DTUWEC_for_FASTfarm.dir/includes_Fortran.rsp
src/dtu_we_controller_bladed/CMakeFiles/DTUWEC_for_FASTfarm.dir/__/dtu_we_controller/floating_controller.f90.obj: ../src/dtu_we_controller/floating_controller.f90
	@$(CMAKE_COMMAND) -E cmake_echo_color --switch=$(COLOR) --green --progress-dir=C:\Users\valentinc\Workspace\OpenFAST\SuperController\DTUWEC-SC-mpi\custom-build\CMakeFiles --progress-num=$(CMAKE_PROGRESS_3) "Building Fortran object src/dtu_we_controller_bladed/CMakeFiles/DTUWEC_for_FASTfarm.dir/__/dtu_we_controller/floating_controller.f90.obj"
	cd /d C:\Users\valentinc\Workspace\OpenFAST\SuperController\DTUWEC-SC-mpi\custom-build\src\dtu_we_controller_bladed && C:\Users\valentinc\msys2\mingw64\bin\gfortran.exe $(Fortran_DEFINES) $(Fortran_INCLUDES) $(Fortran_FLAGS) -c C:\Users\valentinc\Workspace\OpenFAST\SuperController\DTUWEC-SC-mpi\src\dtu_we_controller\floating_controller.f90 -o CMakeFiles\DTUWEC_for_FASTfarm.dir\__\dtu_we_controller\floating_controller.f90.obj

src/dtu_we_controller_bladed/CMakeFiles/DTUWEC_for_FASTfarm.dir/__/dtu_we_controller/floating_controller.f90.i: cmake_force
	@$(CMAKE_COMMAND) -E cmake_echo_color --switch=$(COLOR) --green "Preprocessing Fortran source to CMakeFiles/DTUWEC_for_FASTfarm.dir/__/dtu_we_controller/floating_controller.f90.i"
	cd /d C:\Users\valentinc\Workspace\OpenFAST\SuperController\DTUWEC-SC-mpi\custom-build\src\dtu_we_controller_bladed && C:\Users\valentinc\msys2\mingw64\bin\gfortran.exe $(Fortran_DEFINES) $(Fortran_INCLUDES) $(Fortran_FLAGS) -E C:\Users\valentinc\Workspace\OpenFAST\SuperController\DTUWEC-SC-mpi\src\dtu_we_controller\floating_controller.f90 > CMakeFiles\DTUWEC_for_FASTfarm.dir\__\dtu_we_controller\floating_controller.f90.i

src/dtu_we_controller_bladed/CMakeFiles/DTUWEC_for_FASTfarm.dir/__/dtu_we_controller/floating_controller.f90.s: cmake_force
	@$(CMAKE_COMMAND) -E cmake_echo_color --switch=$(COLOR) --green "Compiling Fortran source to assembly CMakeFiles/DTUWEC_for_FASTfarm.dir/__/dtu_we_controller/floating_controller.f90.s"
	cd /d C:\Users\valentinc\Workspace\OpenFAST\SuperController\DTUWEC-SC-mpi\custom-build\src\dtu_we_controller_bladed && C:\Users\valentinc\msys2\mingw64\bin\gfortran.exe $(Fortran_DEFINES) $(Fortran_INCLUDES) $(Fortran_FLAGS) -S C:\Users\valentinc\Workspace\OpenFAST\SuperController\DTUWEC-SC-mpi\src\dtu_we_controller\floating_controller.f90 -o CMakeFiles\DTUWEC_for_FASTfarm.dir\__\dtu_we_controller\floating_controller.f90.s

src/dtu_we_controller_bladed/CMakeFiles/DTUWEC_for_FASTfarm.dir/__/dtu_we_controller/safety_system.f90.obj: src/dtu_we_controller_bladed/CMakeFiles/DTUWEC_for_FASTfarm.dir/flags.make
src/dtu_we_controller_bladed/CMakeFiles/DTUWEC_for_FASTfarm.dir/__/dtu_we_controller/safety_system.f90.obj: src/dtu_we_controller_bladed/CMakeFiles/DTUWEC_for_FASTfarm.dir/includes_Fortran.rsp
src/dtu_we_controller_bladed/CMakeFiles/DTUWEC_for_FASTfarm.dir/__/dtu_we_controller/safety_system.f90.obj: ../src/dtu_we_controller/safety_system.f90
	@$(CMAKE_COMMAND) -E cmake_echo_color --switch=$(COLOR) --green --progress-dir=C:\Users\valentinc\Workspace\OpenFAST\SuperController\DTUWEC-SC-mpi\custom-build\CMakeFiles --progress-num=$(CMAKE_PROGRESS_4) "Building Fortran object src/dtu_we_controller_bladed/CMakeFiles/DTUWEC_for_FASTfarm.dir/__/dtu_we_controller/safety_system.f90.obj"
	cd /d C:\Users\valentinc\Workspace\OpenFAST\SuperController\DTUWEC-SC-mpi\custom-build\src\dtu_we_controller_bladed && C:\Users\valentinc\msys2\mingw64\bin\gfortran.exe $(Fortran_DEFINES) $(Fortran_INCLUDES) $(Fortran_FLAGS) -c C:\Users\valentinc\Workspace\OpenFAST\SuperController\DTUWEC-SC-mpi\src\dtu_we_controller\safety_system.f90 -o CMakeFiles\DTUWEC_for_FASTfarm.dir\__\dtu_we_controller\safety_system.f90.obj

src/dtu_we_controller_bladed/CMakeFiles/DTUWEC_for_FASTfarm.dir/__/dtu_we_controller/safety_system.f90.i: cmake_force
	@$(CMAKE_COMMAND) -E cmake_echo_color --switch=$(COLOR) --green "Preprocessing Fortran source to CMakeFiles/DTUWEC_for_FASTfarm.dir/__/dtu_we_controller/safety_system.f90.i"
	cd /d C:\Users\valentinc\Workspace\OpenFAST\SuperController\DTUWEC-SC-mpi\custom-build\src\dtu_we_controller_bladed && C:\Users\valentinc\msys2\mingw64\bin\gfortran.exe $(Fortran_DEFINES) $(Fortran_INCLUDES) $(Fortran_FLAGS) -E C:\Users\valentinc\Workspace\OpenFAST\SuperController\DTUWEC-SC-mpi\src\dtu_we_controller\safety_system.f90 > CMakeFiles\DTUWEC_for_FASTfarm.dir\__\dtu_we_controller\safety_system.f90.i

src/dtu_we_controller_bladed/CMakeFiles/DTUWEC_for_FASTfarm.dir/__/dtu_we_controller/safety_system.f90.s: cmake_force
	@$(CMAKE_COMMAND) -E cmake_echo_color --switch=$(COLOR) --green "Compiling Fortran source to assembly CMakeFiles/DTUWEC_for_FASTfarm.dir/__/dtu_we_controller/safety_system.f90.s"
	cd /d C:\Users\valentinc\Workspace\OpenFAST\SuperController\DTUWEC-SC-mpi\custom-build\src\dtu_we_controller_bladed && C:\Users\valentinc\msys2\mingw64\bin\gfortran.exe $(Fortran_DEFINES) $(Fortran_INCLUDES) $(Fortran_FLAGS) -S C:\Users\valentinc\Workspace\OpenFAST\SuperController\DTUWEC-SC-mpi\src\dtu_we_controller\safety_system.f90 -o CMakeFiles\DTUWEC_for_FASTfarm.dir\__\dtu_we_controller\safety_system.f90.s

src/dtu_we_controller_bladed/CMakeFiles/DTUWEC_for_FASTfarm.dir/__/dtu_we_controller/turbine_controller.f90.obj: src/dtu_we_controller_bladed/CMakeFiles/DTUWEC_for_FASTfarm.dir/flags.make
src/dtu_we_controller_bladed/CMakeFiles/DTUWEC_for_FASTfarm.dir/__/dtu_we_controller/turbine_controller.f90.obj: src/dtu_we_controller_bladed/CMakeFiles/DTUWEC_for_FASTfarm.dir/includes_Fortran.rsp
src/dtu_we_controller_bladed/CMakeFiles/DTUWEC_for_FASTfarm.dir/__/dtu_we_controller/turbine_controller.f90.obj: ../src/dtu_we_controller/turbine_controller.f90
	@$(CMAKE_COMMAND) -E cmake_echo_color --switch=$(COLOR) --green --progress-dir=C:\Users\valentinc\Workspace\OpenFAST\SuperController\DTUWEC-SC-mpi\custom-build\CMakeFiles --progress-num=$(CMAKE_PROGRESS_5) "Building Fortran object src/dtu_we_controller_bladed/CMakeFiles/DTUWEC_for_FASTfarm.dir/__/dtu_we_controller/turbine_controller.f90.obj"
	cd /d C:\Users\valentinc\Workspace\OpenFAST\SuperController\DTUWEC-SC-mpi\custom-build\src\dtu_we_controller_bladed && C:\Users\valentinc\msys2\mingw64\bin\gfortran.exe $(Fortran_DEFINES) $(Fortran_INCLUDES) $(Fortran_FLAGS) -c C:\Users\valentinc\Workspace\OpenFAST\SuperController\DTUWEC-SC-mpi\src\dtu_we_controller\turbine_controller.f90 -o CMakeFiles\DTUWEC_for_FASTfarm.dir\__\dtu_we_controller\turbine_controller.f90.obj

src/dtu_we_controller_bladed/CMakeFiles/DTUWEC_for_FASTfarm.dir/__/dtu_we_controller/turbine_controller.f90.i: cmake_force
	@$(CMAKE_COMMAND) -E cmake_echo_color --switch=$(COLOR) --green "Preprocessing Fortran source to CMakeFiles/DTUWEC_for_FASTfarm.dir/__/dtu_we_controller/turbine_controller.f90.i"
	cd /d C:\Users\valentinc\Workspace\OpenFAST\SuperController\DTUWEC-SC-mpi\custom-build\src\dtu_we_controller_bladed && C:\Users\valentinc\msys2\mingw64\bin\gfortran.exe $(Fortran_DEFINES) $(Fortran_INCLUDES) $(Fortran_FLAGS) -E C:\Users\valentinc\Workspace\OpenFAST\SuperController\DTUWEC-SC-mpi\src\dtu_we_controller\turbine_controller.f90 > CMakeFiles\DTUWEC_for_FASTfarm.dir\__\dtu_we_controller\turbine_controller.f90.i

src/dtu_we_controller_bladed/CMakeFiles/DTUWEC_for_FASTfarm.dir/__/dtu_we_controller/turbine_controller.f90.s: cmake_force
	@$(CMAKE_COMMAND) -E cmake_echo_color --switch=$(COLOR) --green "Compiling Fortran source to assembly CMakeFiles/DTUWEC_for_FASTfarm.dir/__/dtu_we_controller/turbine_controller.f90.s"
	cd /d C:\Users\valentinc\Workspace\OpenFAST\SuperController\DTUWEC-SC-mpi\custom-build\src\dtu_we_controller_bladed && C:\Users\valentinc\msys2\mingw64\bin\gfortran.exe $(Fortran_DEFINES) $(Fortran_INCLUDES) $(Fortran_FLAGS) -S C:\Users\valentinc\Workspace\OpenFAST\SuperController\DTUWEC-SC-mpi\src\dtu_we_controller\turbine_controller.f90 -o CMakeFiles\DTUWEC_for_FASTfarm.dir\__\dtu_we_controller\turbine_controller.f90.s

src/dtu_we_controller_bladed/CMakeFiles/DTUWEC_for_FASTfarm.dir/SCClientSubs.f90.obj: src/dtu_we_controller_bladed/CMakeFiles/DTUWEC_for_FASTfarm.dir/flags.make
src/dtu_we_controller_bladed/CMakeFiles/DTUWEC_for_FASTfarm.dir/SCClientSubs.f90.obj: src/dtu_we_controller_bladed/CMakeFiles/DTUWEC_for_FASTfarm.dir/includes_Fortran.rsp
src/dtu_we_controller_bladed/CMakeFiles/DTUWEC_for_FASTfarm.dir/SCClientSubs.f90.obj: ../src/dtu_we_controller_bladed/SCClientSubs.f90
	@$(CMAKE_COMMAND) -E cmake_echo_color --switch=$(COLOR) --green --progress-dir=C:\Users\valentinc\Workspace\OpenFAST\SuperController\DTUWEC-SC-mpi\custom-build\CMakeFiles --progress-num=$(CMAKE_PROGRESS_6) "Building Fortran object src/dtu_we_controller_bladed/CMakeFiles/DTUWEC_for_FASTfarm.dir/SCClientSubs.f90.obj"
	cd /d C:\Users\valentinc\Workspace\OpenFAST\SuperController\DTUWEC-SC-mpi\custom-build\src\dtu_we_controller_bladed && C:\Users\valentinc\msys2\mingw64\bin\gfortran.exe $(Fortran_DEFINES) $(Fortran_INCLUDES) $(Fortran_FLAGS) -c C:\Users\valentinc\Workspace\OpenFAST\SuperController\DTUWEC-SC-mpi\src\dtu_we_controller_bladed\SCClientSubs.f90 -o CMakeFiles\DTUWEC_for_FASTfarm.dir\SCClientSubs.f90.obj

src/dtu_we_controller_bladed/CMakeFiles/DTUWEC_for_FASTfarm.dir/SCClientSubs.f90.i: cmake_force
	@$(CMAKE_COMMAND) -E cmake_echo_color --switch=$(COLOR) --green "Preprocessing Fortran source to CMakeFiles/DTUWEC_for_FASTfarm.dir/SCClientSubs.f90.i"
	cd /d C:\Users\valentinc\Workspace\OpenFAST\SuperController\DTUWEC-SC-mpi\custom-build\src\dtu_we_controller_bladed && C:\Users\valentinc\msys2\mingw64\bin\gfortran.exe $(Fortran_DEFINES) $(Fortran_INCLUDES) $(Fortran_FLAGS) -E C:\Users\valentinc\Workspace\OpenFAST\SuperController\DTUWEC-SC-mpi\src\dtu_we_controller_bladed\SCClientSubs.f90 > CMakeFiles\DTUWEC_for_FASTfarm.dir\SCClientSubs.f90.i

src/dtu_we_controller_bladed/CMakeFiles/DTUWEC_for_FASTfarm.dir/SCClientSubs.f90.s: cmake_force
	@$(CMAKE_COMMAND) -E cmake_echo_color --switch=$(COLOR) --green "Compiling Fortran source to assembly CMakeFiles/DTUWEC_for_FASTfarm.dir/SCClientSubs.f90.s"
	cd /d C:\Users\valentinc\Workspace\OpenFAST\SuperController\DTUWEC-SC-mpi\custom-build\src\dtu_we_controller_bladed && C:\Users\valentinc\msys2\mingw64\bin\gfortran.exe $(Fortran_DEFINES) $(Fortran_INCLUDES) $(Fortran_FLAGS) -S C:\Users\valentinc\Workspace\OpenFAST\SuperController\DTUWEC-SC-mpi\src\dtu_we_controller_bladed\SCClientSubs.f90 -o CMakeFiles\DTUWEC_for_FASTfarm.dir\SCClientSubs.f90.s

src/dtu_we_controller_bladed/CMakeFiles/DTUWEC_for_FASTfarm.dir/dtu_we_controller_bladed.f90.obj: src/dtu_we_controller_bladed/CMakeFiles/DTUWEC_for_FASTfarm.dir/flags.make
src/dtu_we_controller_bladed/CMakeFiles/DTUWEC_for_FASTfarm.dir/dtu_we_controller_bladed.f90.obj: src/dtu_we_controller_bladed/CMakeFiles/DTUWEC_for_FASTfarm.dir/includes_Fortran.rsp
src/dtu_we_controller_bladed/CMakeFiles/DTUWEC_for_FASTfarm.dir/dtu_we_controller_bladed.f90.obj: ../src/dtu_we_controller_bladed/dtu_we_controller_bladed.f90
	@$(CMAKE_COMMAND) -E cmake_echo_color --switch=$(COLOR) --green --progress-dir=C:\Users\valentinc\Workspace\OpenFAST\SuperController\DTUWEC-SC-mpi\custom-build\CMakeFiles --progress-num=$(CMAKE_PROGRESS_7) "Building Fortran object src/dtu_we_controller_bladed/CMakeFiles/DTUWEC_for_FASTfarm.dir/dtu_we_controller_bladed.f90.obj"
	cd /d C:\Users\valentinc\Workspace\OpenFAST\SuperController\DTUWEC-SC-mpi\custom-build\src\dtu_we_controller_bladed && C:\Users\valentinc\msys2\mingw64\bin\gfortran.exe $(Fortran_DEFINES) $(Fortran_INCLUDES) $(Fortran_FLAGS) -c C:\Users\valentinc\Workspace\OpenFAST\SuperController\DTUWEC-SC-mpi\src\dtu_we_controller_bladed\dtu_we_controller_bladed.f90 -o CMakeFiles\DTUWEC_for_FASTfarm.dir\dtu_we_controller_bladed.f90.obj

src/dtu_we_controller_bladed/CMakeFiles/DTUWEC_for_FASTfarm.dir/dtu_we_controller_bladed.f90.i: cmake_force
	@$(CMAKE_COMMAND) -E cmake_echo_color --switch=$(COLOR) --green "Preprocessing Fortran source to CMakeFiles/DTUWEC_for_FASTfarm.dir/dtu_we_controller_bladed.f90.i"
	cd /d C:\Users\valentinc\Workspace\OpenFAST\SuperController\DTUWEC-SC-mpi\custom-build\src\dtu_we_controller_bladed && C:\Users\valentinc\msys2\mingw64\bin\gfortran.exe $(Fortran_DEFINES) $(Fortran_INCLUDES) $(Fortran_FLAGS) -E C:\Users\valentinc\Workspace\OpenFAST\SuperController\DTUWEC-SC-mpi\src\dtu_we_controller_bladed\dtu_we_controller_bladed.f90 > CMakeFiles\DTUWEC_for_FASTfarm.dir\dtu_we_controller_bladed.f90.i

src/dtu_we_controller_bladed/CMakeFiles/DTUWEC_for_FASTfarm.dir/dtu_we_controller_bladed.f90.s: cmake_force
	@$(CMAKE_COMMAND) -E cmake_echo_color --switch=$(COLOR) --green "Compiling Fortran source to assembly CMakeFiles/DTUWEC_for_FASTfarm.dir/dtu_we_controller_bladed.f90.s"
	cd /d C:\Users\valentinc\Workspace\OpenFAST\SuperController\DTUWEC-SC-mpi\custom-build\src\dtu_we_controller_bladed && C:\Users\valentinc\msys2\mingw64\bin\gfortran.exe $(Fortran_DEFINES) $(Fortran_INCLUDES) $(Fortran_FLAGS) -S C:\Users\valentinc\Workspace\OpenFAST\SuperController\DTUWEC-SC-mpi\src\dtu_we_controller_bladed\dtu_we_controller_bladed.f90 -o CMakeFiles\DTUWEC_for_FASTfarm.dir\dtu_we_controller_bladed.f90.s

src/dtu_we_controller_bladed/CMakeFiles/DTUWEC_for_FASTfarm.dir/__/modules/global_constants.f90.obj: src/dtu_we_controller_bladed/CMakeFiles/DTUWEC_for_FASTfarm.dir/flags.make
src/dtu_we_controller_bladed/CMakeFiles/DTUWEC_for_FASTfarm.dir/__/modules/global_constants.f90.obj: src/dtu_we_controller_bladed/CMakeFiles/DTUWEC_for_FASTfarm.dir/includes_Fortran.rsp
src/dtu_we_controller_bladed/CMakeFiles/DTUWEC_for_FASTfarm.dir/__/modules/global_constants.f90.obj: ../src/modules/global_constants.f90
	@$(CMAKE_COMMAND) -E cmake_echo_color --switch=$(COLOR) --green --progress-dir=C:\Users\valentinc\Workspace\OpenFAST\SuperController\DTUWEC-SC-mpi\custom-build\CMakeFiles --progress-num=$(CMAKE_PROGRESS_8) "Building Fortran object src/dtu_we_controller_bladed/CMakeFiles/DTUWEC_for_FASTfarm.dir/__/modules/global_constants.f90.obj"
	cd /d C:\Users\valentinc\Workspace\OpenFAST\SuperController\DTUWEC-SC-mpi\custom-build\src\dtu_we_controller_bladed && C:\Users\valentinc\msys2\mingw64\bin\gfortran.exe $(Fortran_DEFINES) $(Fortran_INCLUDES) $(Fortran_FLAGS) -c C:\Users\valentinc\Workspace\OpenFAST\SuperController\DTUWEC-SC-mpi\src\modules\global_constants.f90 -o CMakeFiles\DTUWEC_for_FASTfarm.dir\__\modules\global_constants.f90.obj

src/dtu_we_controller_bladed/CMakeFiles/DTUWEC_for_FASTfarm.dir/__/modules/global_constants.f90.i: cmake_force
	@$(CMAKE_COMMAND) -E cmake_echo_color --switch=$(COLOR) --green "Preprocessing Fortran source to CMakeFiles/DTUWEC_for_FASTfarm.dir/__/modules/global_constants.f90.i"
	cd /d C:\Users\valentinc\Workspace\OpenFAST\SuperController\DTUWEC-SC-mpi\custom-build\src\dtu_we_controller_bladed && C:\Users\valentinc\msys2\mingw64\bin\gfortran.exe $(Fortran_DEFINES) $(Fortran_INCLUDES) $(Fortran_FLAGS) -E C:\Users\valentinc\Workspace\OpenFAST\SuperController\DTUWEC-SC-mpi\src\modules\global_constants.f90 > CMakeFiles\DTUWEC_for_FASTfarm.dir\__\modules\global_constants.f90.i

src/dtu_we_controller_bladed/CMakeFiles/DTUWEC_for_FASTfarm.dir/__/modules/global_constants.f90.s: cmake_force
	@$(CMAKE_COMMAND) -E cmake_echo_color --switch=$(COLOR) --green "Compiling Fortran source to assembly CMakeFiles/DTUWEC_for_FASTfarm.dir/__/modules/global_constants.f90.s"
	cd /d C:\Users\valentinc\Workspace\OpenFAST\SuperController\DTUWEC-SC-mpi\custom-build\src\dtu_we_controller_bladed && C:\Users\valentinc\msys2\mingw64\bin\gfortran.exe $(Fortran_DEFINES) $(Fortran_INCLUDES) $(Fortran_FLAGS) -S C:\Users\valentinc\Workspace\OpenFAST\SuperController\DTUWEC-SC-mpi\src\modules\global_constants.f90 -o CMakeFiles\DTUWEC_for_FASTfarm.dir\__\modules\global_constants.f90.s

src/dtu_we_controller_bladed/CMakeFiles/DTUWEC_for_FASTfarm.dir/__/modules/global_variables.f90.obj: src/dtu_we_controller_bladed/CMakeFiles/DTUWEC_for_FASTfarm.dir/flags.make
src/dtu_we_controller_bladed/CMakeFiles/DTUWEC_for_FASTfarm.dir/__/modules/global_variables.f90.obj: src/dtu_we_controller_bladed/CMakeFiles/DTUWEC_for_FASTfarm.dir/includes_Fortran.rsp
src/dtu_we_controller_bladed/CMakeFiles/DTUWEC_for_FASTfarm.dir/__/modules/global_variables.f90.obj: ../src/modules/global_variables.f90
	@$(CMAKE_COMMAND) -E cmake_echo_color --switch=$(COLOR) --green --progress-dir=C:\Users\valentinc\Workspace\OpenFAST\SuperController\DTUWEC-SC-mpi\custom-build\CMakeFiles --progress-num=$(CMAKE_PROGRESS_9) "Building Fortran object src/dtu_we_controller_bladed/CMakeFiles/DTUWEC_for_FASTfarm.dir/__/modules/global_variables.f90.obj"
	cd /d C:\Users\valentinc\Workspace\OpenFAST\SuperController\DTUWEC-SC-mpi\custom-build\src\dtu_we_controller_bladed && C:\Users\valentinc\msys2\mingw64\bin\gfortran.exe $(Fortran_DEFINES) $(Fortran_INCLUDES) $(Fortran_FLAGS) -c C:\Users\valentinc\Workspace\OpenFAST\SuperController\DTUWEC-SC-mpi\src\modules\global_variables.f90 -o CMakeFiles\DTUWEC_for_FASTfarm.dir\__\modules\global_variables.f90.obj

src/dtu_we_controller_bladed/CMakeFiles/DTUWEC_for_FASTfarm.dir/__/modules/global_variables.f90.i: cmake_force
	@$(CMAKE_COMMAND) -E cmake_echo_color --switch=$(COLOR) --green "Preprocessing Fortran source to CMakeFiles/DTUWEC_for_FASTfarm.dir/__/modules/global_variables.f90.i"
	cd /d C:\Users\valentinc\Workspace\OpenFAST\SuperController\DTUWEC-SC-mpi\custom-build\src\dtu_we_controller_bladed && C:\Users\valentinc\msys2\mingw64\bin\gfortran.exe $(Fortran_DEFINES) $(Fortran_INCLUDES) $(Fortran_FLAGS) -E C:\Users\valentinc\Workspace\OpenFAST\SuperController\DTUWEC-SC-mpi\src\modules\global_variables.f90 > CMakeFiles\DTUWEC_for_FASTfarm.dir\__\modules\global_variables.f90.i

src/dtu_we_controller_bladed/CMakeFiles/DTUWEC_for_FASTfarm.dir/__/modules/global_variables.f90.s: cmake_force
	@$(CMAKE_COMMAND) -E cmake_echo_color --switch=$(COLOR) --green "Compiling Fortran source to assembly CMakeFiles/DTUWEC_for_FASTfarm.dir/__/modules/global_variables.f90.s"
	cd /d C:\Users\valentinc\Workspace\OpenFAST\SuperController\DTUWEC-SC-mpi\custom-build\src\dtu_we_controller_bladed && C:\Users\valentinc\msys2\mingw64\bin\gfortran.exe $(Fortran_DEFINES) $(Fortran_INCLUDES) $(Fortran_FLAGS) -S C:\Users\valentinc\Workspace\OpenFAST\SuperController\DTUWEC-SC-mpi\src\modules\global_variables.f90 -o CMakeFiles\DTUWEC_for_FASTfarm.dir\__\modules\global_variables.f90.s

src/dtu_we_controller_bladed/CMakeFiles/DTUWEC_for_FASTfarm.dir/__/modules/misc_mod.f90.obj: src/dtu_we_controller_bladed/CMakeFiles/DTUWEC_for_FASTfarm.dir/flags.make
src/dtu_we_controller_bladed/CMakeFiles/DTUWEC_for_FASTfarm.dir/__/modules/misc_mod.f90.obj: src/dtu_we_controller_bladed/CMakeFiles/DTUWEC_for_FASTfarm.dir/includes_Fortran.rsp
src/dtu_we_controller_bladed/CMakeFiles/DTUWEC_for_FASTfarm.dir/__/modules/misc_mod.f90.obj: ../src/modules/misc_mod.f90
	@$(CMAKE_COMMAND) -E cmake_echo_color --switch=$(COLOR) --green --progress-dir=C:\Users\valentinc\Workspace\OpenFAST\SuperController\DTUWEC-SC-mpi\custom-build\CMakeFiles --progress-num=$(CMAKE_PROGRESS_10) "Building Fortran object src/dtu_we_controller_bladed/CMakeFiles/DTUWEC_for_FASTfarm.dir/__/modules/misc_mod.f90.obj"
	cd /d C:\Users\valentinc\Workspace\OpenFAST\SuperController\DTUWEC-SC-mpi\custom-build\src\dtu_we_controller_bladed && C:\Users\valentinc\msys2\mingw64\bin\gfortran.exe $(Fortran_DEFINES) $(Fortran_INCLUDES) $(Fortran_FLAGS) -c C:\Users\valentinc\Workspace\OpenFAST\SuperController\DTUWEC-SC-mpi\src\modules\misc_mod.f90 -o CMakeFiles\DTUWEC_for_FASTfarm.dir\__\modules\misc_mod.f90.obj

src/dtu_we_controller_bladed/CMakeFiles/DTUWEC_for_FASTfarm.dir/__/modules/misc_mod.f90.i: cmake_force
	@$(CMAKE_COMMAND) -E cmake_echo_color --switch=$(COLOR) --green "Preprocessing Fortran source to CMakeFiles/DTUWEC_for_FASTfarm.dir/__/modules/misc_mod.f90.i"
	cd /d C:\Users\valentinc\Workspace\OpenFAST\SuperController\DTUWEC-SC-mpi\custom-build\src\dtu_we_controller_bladed && C:\Users\valentinc\msys2\mingw64\bin\gfortran.exe $(Fortran_DEFINES) $(Fortran_INCLUDES) $(Fortran_FLAGS) -E C:\Users\valentinc\Workspace\OpenFAST\SuperController\DTUWEC-SC-mpi\src\modules\misc_mod.f90 > CMakeFiles\DTUWEC_for_FASTfarm.dir\__\modules\misc_mod.f90.i

src/dtu_we_controller_bladed/CMakeFiles/DTUWEC_for_FASTfarm.dir/__/modules/misc_mod.f90.s: cmake_force
	@$(CMAKE_COMMAND) -E cmake_echo_color --switch=$(COLOR) --green "Compiling Fortran source to assembly CMakeFiles/DTUWEC_for_FASTfarm.dir/__/modules/misc_mod.f90.s"
	cd /d C:\Users\valentinc\Workspace\OpenFAST\SuperController\DTUWEC-SC-mpi\custom-build\src\dtu_we_controller_bladed && C:\Users\valentinc\msys2\mingw64\bin\gfortran.exe $(Fortran_DEFINES) $(Fortran_INCLUDES) $(Fortran_FLAGS) -S C:\Users\valentinc\Workspace\OpenFAST\SuperController\DTUWEC-SC-mpi\src\modules\misc_mod.f90 -o CMakeFiles\DTUWEC_for_FASTfarm.dir\__\modules\misc_mod.f90.s

src/dtu_we_controller_bladed/CMakeFiles/DTUWEC_for_FASTfarm.dir/__/modules/user_defined_types.f90.obj: src/dtu_we_controller_bladed/CMakeFiles/DTUWEC_for_FASTfarm.dir/flags.make
src/dtu_we_controller_bladed/CMakeFiles/DTUWEC_for_FASTfarm.dir/__/modules/user_defined_types.f90.obj: src/dtu_we_controller_bladed/CMakeFiles/DTUWEC_for_FASTfarm.dir/includes_Fortran.rsp
src/dtu_we_controller_bladed/CMakeFiles/DTUWEC_for_FASTfarm.dir/__/modules/user_defined_types.f90.obj: ../src/modules/user_defined_types.f90
	@$(CMAKE_COMMAND) -E cmake_echo_color --switch=$(COLOR) --green --progress-dir=C:\Users\valentinc\Workspace\OpenFAST\SuperController\DTUWEC-SC-mpi\custom-build\CMakeFiles --progress-num=$(CMAKE_PROGRESS_11) "Building Fortran object src/dtu_we_controller_bladed/CMakeFiles/DTUWEC_for_FASTfarm.dir/__/modules/user_defined_types.f90.obj"
	cd /d C:\Users\valentinc\Workspace\OpenFAST\SuperController\DTUWEC-SC-mpi\custom-build\src\dtu_we_controller_bladed && C:\Users\valentinc\msys2\mingw64\bin\gfortran.exe $(Fortran_DEFINES) $(Fortran_INCLUDES) $(Fortran_FLAGS) -c C:\Users\valentinc\Workspace\OpenFAST\SuperController\DTUWEC-SC-mpi\src\modules\user_defined_types.f90 -o CMakeFiles\DTUWEC_for_FASTfarm.dir\__\modules\user_defined_types.f90.obj

src/dtu_we_controller_bladed/CMakeFiles/DTUWEC_for_FASTfarm.dir/__/modules/user_defined_types.f90.i: cmake_force
	@$(CMAKE_COMMAND) -E cmake_echo_color --switch=$(COLOR) --green "Preprocessing Fortran source to CMakeFiles/DTUWEC_for_FASTfarm.dir/__/modules/user_defined_types.f90.i"