# CMAKE generated file: DO NOT EDIT!
# Generated by "MinGW Makefiles" Generator, CMake Version 3.16

# Default target executed when no arguments are given to make.
default_target: all

.PHONY : default_target

#=============================================================================
# Special targets provided by cmake.

# Disable implicit rules so canonical targets will work.
.SUFFIXES:


# Remove some rules from gmake that .SUFFIXES does not remove.
SUFFIXES =

.SUFFIXES: .hpux_make_needs_suffix_list


# Suppress display of executed commands.
$(VERBOSE).SILENT:


# A target that is always out of date.
cmake_force:

.PHONY : cmake_force

#=============================================================================
# Set environment variables for the build.

SHELL = cmd.exe

# The CMake executable.
CMAKE_COMMAND = "C:\Program Files\CMake\bin\cmake.exe"

# The command to remove a file.
RM = "C:\Program Files\CMake\bin\cmake.exe" -E remove -f

# Escaping for special characters.
EQUALS = =

# The top-level source directory on which CMake was run.
CMAKE_SOURCE_DIR = C:\Users\valentinc\Workspace\OpenFAST\SuperController\DTUWEC-SC-mpi

# The top-level build directory on which CMake was run.
CMAKE_BINARY_DIR = C:\Users\valentinc\Workspace\OpenFAST\SuperController\DTUWEC-SC-mpi\custom-build

#=============================================================================
# Directory level rules for the build root directory

# The main recursive "all" target.
all: src/dtu_we_controller/all
all: src/dtu_we_controller_bladed/all
all: src/individual_pitch_controller/all
all: src/flap_controller_individual_aep_u_f/all
all: src/flap_controller_cyclic/all

.PHONY : all

# The main recursive "preinstall" target.
preinstall: src/dtu_we_controller/preinstall
preinstall: src/dtu_we_controller_bladed/preinstall
preinstall: src/individual_pitch_controller/preinstall
preinstall: src/flap_controller_individual_aep_u_f/preinstall
preinstall: src/flap_controller_cyclic/preinstall

.PHONY : preinstall

# The main recursive "clean" target.
clean: src/dtu_we_controller/clean
clean: src/dtu_we_controller_bladed/clean
clean: src/individual_pitch_controller/clean
clean: src/flap_controller_individual_aep_u_f/clean
clean: src/flap_controller_cyclic/clean

.PHONY : clean

#=============================================================================
# Directory level rules for directory src/dtu_we_controller

# Recursive "all" directory target.
src/dtu_we_controller/all: src/dtu_we_controller/CMakeFiles/dtu_we_controller.dir/all

.PHONY : src/dtu_we_controller/all

# Recursive "preinstall" directory target.
src/dtu_we_controller/preinstall:

.PHONY : src/dtu_we_controller/preinstall

# Recursive "clean" directory target.
src/dtu_we_controller/clean: src/dtu_we_controller/CMakeFiles/dtu_we_controller.dir/clean

.PHONY : src/dtu_we_controller/clean

#=============================================================================
# Directory level rules for directory src/dtu_we_controller_bladed

# Recursive "all" directory target.
src/dtu_we_controller_bladed/all: src/dtu_we_controller_bladed/CMakeFiles/DTUWEC4SC.dir/all

.PHONY : src/dtu_we_controller_bladed/all

# Recursive "preinstall" directory target.
src/dtu_we_controller_bladed/preinstall:

.PHONY : src/dtu_we_controller_bladed/preinstall

# Recursive "clean" directory target.
src/dtu_we_controller_bladed/clean: src/dtu_we_controller_bladed/CMakeFiles/DTUWEC4SC.dir/clean

.PHONY : src/dtu_we_controller_bladed/clean

#=============================================================================
# Directory level rules for directory src/flap_controller_cyclic

# Recursive "all" directory target.
src/flap_controller_cyclic/all: src/flap_controller_cyclic/CMakeFiles/flap_controller_cyclic.dir/all

.PHONY : src/flap_controller_cyclic/all

# Recursive "preinstall" directory target.
src/flap_controller_cyclic/preinstall:

.PHONY : src/flap_controller_cyclic/preinstall

# Recursive "clean" directory target.
src/flap_controller_cyclic/clean: src/flap_controller_cyclic/CMakeFiles/flap_controller_cyclic.dir/clean

.PHONY : src/flap_controller_cyclic/clean

#=============================================================================
# Directory level rules for directory src/flap_controller_individual_aep_u_f

# Recursive "all" directory target.
src/flap_controller_individual_aep_u_f/all: src/flap_controller_individual_aep_u_f/CMakeFiles/individual_flap_controller.dir/all

.PHONY : src/flap_controller_individual_aep_u_f/all

# Recursive "preinstall" directory target.
src/flap_controller_individual_aep_u_f/preinstall:

.PHONY : src/flap_controller_individual_aep_u_f/preinstall

# Recursive "clean" directory target.
src/flap_controller_individual_aep_u_f/clean: src/flap_controller_individual_aep_u_f/CMakeFiles/individual_flap_controller.dir/clean

.PHONY : src/flap_controller_individual_aep_u_f/clean

#=============================================================================
# Directory level rules for directory src/individual_pitch_controller

# Recursive "all" directory target.
src/individual_pitch_controller/all: src/individual_pitch_controller/CMakeFiles/cyclic_pitch_controller.dir/all

.PHONY : src/individual_pitch_controller/all

# Recursive "preinstall" directory target.
src/individual_pitch_controller/preinstall:

.PHONY : src/individual_pitch_controller/preinstall

# Recursive "clean" directory target.
src/individual_pitch_controller/clean: src/individual_pitch_controller/CMakeFiles/cyclic_pitch_controller.dir/clean

.PHONY : src/individual_pitch_controller/clean

#=============================================================================
# Target rules for target src/dtu_we_controller/CMakeFiles/dtu_we_controller.dir

# All Build rule for target.
src/dtu_we_controller/CMakeFiles/dtu_we_controller.dir/all:
	$(MAKE) -f src\dtu_we_controller\CMakeFiles\dtu_we_controller.dir\build.make src/dtu_we_controller/CMakeFiles/dtu_we_controller.dir/depend
	$(MAKE) -f src\dtu_we_controller\CMakeFiles\dtu_we_controller.dir\build.make src/dtu_we_controller/CMakeFiles/dtu_we_controller.dir/build
	@$(CMAKE_COMMAND) -E cmake_echo_color --switch=$(COLOR) --progress-dir=C:\Users\valentinc\Workspace\OpenFAST\SuperController\DTUWEC-SC-mpi\custom-build\CMakeFiles --progress-num=35,36,37,38,39,40,41,42,43,44,45,46,47,48,49,50,51,52 "Built target dtu_we_controller"
.PHONY : src/dtu_we_controller/CMakeFiles/dtu_we_controller.dir/all

# Build rule for subdir invocation for target.
src/dtu_we_controller/CMakeFiles/dtu_we_controller.dir/rule: cmake_check_build_system
	$(CMAKE_COMMAND) -E cmake_progress_start C:\Users\valentinc\Workspace\OpenFAST\SuperController\DTUWEC-SC-mpi\custom-build\CMakeFiles 18
	$(MAKE) -f CMakeFiles\Makefile2 src/dtu_we_controller/CMakeFiles/dtu_we_controller.dir/all
	$(CMAKE_COMMAND) -E cmake_progress_start C:\Users\valentinc\Workspace\OpenFAST\SuperController\DTUWEC-SC-mpi\custom-build\CMakeFiles 0
.PHONY : src/dtu_we_controller/CMakeFiles/dtu_we_controller.dir/rule

# Convenience name for target.
dtu_we_controller: src/dtu_we_controller/CMakeFiles/dtu_we_controller.dir/rule

.PHONY : dtu_we_controller

# clean rule for target.
src/dtu_we_controller/CMakeFiles/dtu_we_controller.dir/clean:
	$(MAKE) -f src\dtu_we_controller\CMakeFiles\dtu_we_controller.dir\build.make src/dtu_we_controller/CMakeFiles/dtu_we_controller.dir/clean
.PHONY : src/dtu_we_controller/CMakeFiles/dtu_we_controller.dir/clean

#=============================================================================
# Target rules for target src/dtu_we_controller_bladed/CMakeFiles/DTUWEC4SC.dir

# All Build rule for target.
src/dtu_we_controller_bladed/CMakeFiles/DTUWEC4SC.dir/all:
	$(MAKE) -f src\dtu_we_controller_bladed\CMakeFiles\DTUWEC4SC.dir\build.make src/dtu_we_controller_bladed/CMakeFiles/DTUWEC4SC.dir/depend
	$(MAKE) -f src\dtu_we_controller_bladed\CMakeFiles\DTUWEC4SC.dir\build.make src/dtu_we_controller_bladed/CMakeFiles/DTUWEC4SC.dir/build
	@$(CMAKE_COMMAND) -E cmake_echo_color --switch=$(COLOR) --progress-dir=C:\Users\valentinc\Workspace\OpenFAST\SuperController\DTUWEC-SC-mpi\custom-build\CMakeFiles --progress-num=1,2,3,4,5,6,7,8,9,10,11,12,13,14,15,16,17,18,19 "Built target DTUWEC4SC"
.PHONY : src/dtu_we_controller_bladed/CMakeFiles/DTUWEC4SC.dir/all

# Build rule for subdir invocation for target.
src/dtu_we_controller_bladed/CMakeFiles/DTUWEC4SC.dir/rule: cmake_check_build_system
	$(CMAKE_COMMAND) -E cmake_progress_start C:\Users\valentinc\Workspace\OpenFAST\SuperController\DTUWEC-SC-mpi\custom-build\CMakeFiles 19
	$(MAKE) -f CMakeFiles\Makefile2 src/dtu_we_controller_bladed/CMakeFiles/DTUWEC4SC.dir/all
	$(CMAKE_COMMAND) -E cmake_progress_start C:\Users\valentinc\Workspace\OpenFAST\SuperController\DTUWEC-SC-mpi\custom-build\CMakeFiles 0
.PHONY : src/dtu_we_controller_bladed/CMakeFiles/DTUWEC4SC.dir/rule

# Convenience name for target.
DTUWEC4SC: src/dtu_we_controller_bladed/CMakeFiles/DTUWEC4SC.dir/rule

.PHONY : DTUWEC4SC

# clean rule for target.
src/dtu_we_controller_bladed/CMakeFiles/DTUWEC4SC.dir/clean:
	$(MAKE) -f src\dtu_we_controller_bladed\CMakeFiles\DTUWEC4SC.dir\build.make src/dtu_we_controller_bladed/CMakeFiles/DTUWEC4SC.dir/clean
.PHONY : src/dtu_we_controller_bladed/CMakeFiles/DTUWEC4SC.dir/clean

#=============================================================================
# Target rules for target src/individual_pitch_controller/CMakeFiles/cyclic_pitch_controller.dir

# All Build rule for target.
src/individual_pitch_controller/CMakeFiles/cyclic_pitch_controller.dir/all:
	$(MAKE) -f src\individual_pitch_controller\CMakeFiles\cyclic_pitch_controller.dir\build.make src/individual_pitch_controller/CMakeFiles/cyclic_pitch_controller.dir/depend
	$(MAKE) -f src\individual_pitch_controller\CMakeFiles\cyclic_pitch_controller.dir\build.make src/individual_pitch_controller/CMakeFiles/cyclic_pitch_controller.dir/build
	@$(CMAKE_COMMAND) -E cmake_echo_color --switch=$(COLOR) --progress-dir=C:\Users\valentinc\Workspace\OpenFAST\SuperController\DTUWEC-SC-mpi\custom-build\CMakeFiles --progress-num=20,21,22,23,24,25,26,27,28,29,30,31,32,33,34 "Built target cyclic_pitch_controller"
.PHONY : src/individual_pitch_controller/CMakeFiles/cyclic_pitch_controller.dir/all

# Build rule for subdir invocation for target.
src/individual_pitch_controller/CMakeFiles/cyclic_pitch_controller.dir/rule: cmake_check_build_system
	$(CMAKE_COMMAND) -E cmake_progress_start C:\Users\valentinc\Workspace\OpenFAST\SuperController\DTUWEC-SC-mpi\custom-build\CMakeFiles 15
	$(MAKE) -f CMakeFiles\Makefile2 src/individual_pitch_controller/CMakeFiles/cyclic_pitch_controller.dir/all
	$(CMAKE_COMMAND) -E cmake_progress_start C:\Users\valentinc\Workspace\OpenFAST\SuperController\DTUWEC-SC-mpi\custom-build\CMakeFiles 0
.PHONY : src/individual_pitch_controller/CMakeFiles/cyclic_pitch_controller.dir/rule

# Convenience name for target.
cyclic_pitch_controller: src/individual_pitch_controller/CMakeFiles/cyclic_pitch_controller.dir/rule

.PHONY : cyclic_pitch_controller

# clean rule for target.
src/individual_pitch_controller/CMakeFiles/cyclic_pitch_controller.dir/clean:
	$(MAKE) -f src\individual_pitch_controller\CMakeFiles\cyclic_pitch_controller.dir\build.make src/individual_pitch_controller/CMakeFiles/cyclic_pitch_controller.dir/clean
.PHONY : src/individual_pitch_controller/CMakeFiles/cyclic_pitch_controller.dir/clean

#=============================================================================
# Target rules for target src/flap_controller_individual_aep_u_f/CMakeFiles/individual_flap_controller.dir

# All Build rule for target.
src/flap_controller_individual_aep_u_f/CMakeFiles/individual_flap_controller.dir/all:
	$(MAKE) -f src\flap_controller_individual_aep_u_f\CMakeFiles\individual_flap_controller.dir\build.make src/flap_controller_individual_aep_u_f/CMakeFiles/individual_flap_controller.dir/depend
	$(MAKE) -f src\flap_controller_individual_aep_u_f\CMakeFiles\individual_flap_controller.dir\build.make src/flap_controller_individual_aep_u_f/CMakeFiles/individual_flap_controller.dir/build
	@$(CMAKE_COMMAND) -E cmake_echo_color --switch=$(COLOR) --progress-dir=C:\Users\valentinc\Workspace\OpenFAST\SuperController\DTUWEC-SC-mpi\custom-build\CMakeFiles --progress-num=68,69,70,71,72,73,74,75,76,77,78,79,80,81 "Built target individual_flap_controller"
.PHONY : src/flap_controller_individual_aep_u_f/CMakeFiles/individual_flap_controller.dir/all

# Build rule for subdir invocation for target.
src/flap_controller_individual_aep_u_f/CMakeFiles/individual_flap_controller.dir/rule: cmake_check_build_system
	$(CMAKE_COMMAND) -E cmake_progress_start C:\Users\valentinc\Workspace\OpenFAST\SuperController\DTUWEC-SC-mpi\custom-build\CMakeFiles 14
	$(MAKE) -f CMakeFiles\Makefile2 src/flap_controller_individual_aep_u_f/CMakeFiles/individual_flap_controller.dir/all
	$(CMAKE_COMMAND) -E cmake_progress_start C:\Users\valentinc\Workspace\OpenFAST\SuperController\DTUWEC-SC-mpi\custom-build\CMakeFiles 0
.PHONY : src/flap_controller_individual_aep_u_f/CMakeFiles/individual_flap_controller.dir/rule

# Convenience name for target.
individual_flap_controller: src/flap_controller_individual_aep_u_f/CMakeFiles/individual_flap_controller.dir/rule

.PHONY : individual_flap_controller

# clean rule for target.
src/flap_controller_individual_aep_u_f/CMakeFiles/individual_flap_controller.dir/clean:
	$(MAKE) -f src\flap_controller_individual_aep_u_f\CMakeFiles\individual_flap_controller.dir\build.make src/flap_controller_individual_aep_u_f/CMakeFiles/individual_flap_controller.dir/clean
.PHONY : src/flap_controller_individual_aep_u_f/CMakeFiles/individual_flap_controller.dir/clean

#=============================================================================
# Target rules for target src/flap_controller_cyclic/CMakeFiles/flap_controller_cyclic.dir

# All Build rule for target.
src/flap_controller_cyclic/CMakeFiles/flap_controller_cyclic.dir/all:
	$(MAKE) -f src\flap_controller_cyclic\CMakeFiles\flap_controller_cyclic.dir\build.make src/flap_controller_cyclic/CMakeFiles/flap_controller_cyclic.dir/depend
	$(MAKE) -f src\flap_controller_cyclic\CMakeFiles\flap_controller_cyclic.dir\build.make src/flap_controller_cyclic/CMakeFiles/flap_controller_cyclic.dir/build
	@$(CMAKE_COMMAND) -E cmake_echo_color --switch=$(COLOR) --progress-dir=C:\Users\valentinc\Workspace\OpenFAST\SuperController\DTUWEC-SC-mpi\custom-build\CMakeFiles --progress-num=53,54,55,56,57,58,59,60,61,62,63,64,65,66,67 "Built target flap_controller_cyclic"
.PHONY : src/flap_controller_cyclic/CMakeFiles/flap_controller_cyclic.dir/all

# Build rule for subdir invocation for target.
src/flap_controller_cyclic/CMakeFiles/flap_controller_cyclic.dir/rule: cmake_check_build_system
	$(CMAKE_COMMAND) -E cmake_progress_start C:\Users\valentinc\Workspace\OpenFAST\SuperController\DTUWEC-SC-mpi\custom-build\CMakeFiles 15
	$(MAKE) -f CMakeFiles\Makefile2 src/flap_controller_cyclic/CMakeFiles/flap_controller_cyclic.dir/all
	$(CMAKE_COMMAND) -E cmake_progress_start C:\Users\valentinc\Workspace\OpenFAST\SuperController\DTUWEC-SC-mpi\custom-build\CMakeFiles 0
.PHONY : src/flap_controller_cyclic/CMakeFiles/flap_controller_cyclic.dir/rule

# Convenience name for target.
flap_controller_cyclic: src/flap_controller_cyclic/CMakeFiles/flap_controller_cyclic.dir/rule

.PHONY : flap_controller_cyclic

# clean rule for target.
src/flap_controller_cyclic/CMakeFiles/flap_controller_cyclic.dir/clean:
	$(MAKE) -f src\flap_controller_cyclic\CMakeFiles\flap_controller_cyclic.dir\build.make src/flap_controller_cyclic/CMakeFiles/flap_controller_cyclic.dir/clean
.PHONY : src/flap_controller_cyclic/CMakeFiles/flap_controller_cyclic.dir/clean

#=============================================================================
# Special targets to cleanup operation of make.

# Special rule to run CMake to check the build system integrity.
# No rule that depends on this can have commands that come from listfiles
# because they might be regenerated.
cmake_check_build_system:
	$(CMAKE_COMMAND) -S$(CMAKE_SOURCE_DIR) -B$(CMAKE_BINARY_DIR) --check-build-system CMakeFiles\Makefile.cmake 0
.PHONY : cmake_check_build_system

