C:/Users/valentinc/Workspace/OpenFAST/SuperController/DTUWEC-SC-mpi/custom-build/CMakeFiles/edit_cache.dir
C:/Users/valentinc/Workspace/OpenFAST/SuperController/DTUWEC-SC-mpi/custom-build/CMakeFiles/rebuild_cache.dir
C:/Users/valentinc/Workspace/OpenFAST/SuperController/DTUWEC-SC-mpi/custom-build/src/dtu_we_controller/CMakeFiles/dtu_we_controller.dir
C:/Users/valentinc/Workspace/OpenFAST/SuperController/DTUWEC-SC-mpi/custom-build/src/dtu_we_controller/CMakeFiles/edit_cache.dir
C:/Users/valentinc/Workspace/OpenFAST/SuperController/DTUWEC-SC-mpi/custom-build/src/dtu_we_controller/CMakeFiles/rebuild_cache.dir
C:/Users/valentinc/Workspace/OpenFAST/SuperController/DTUWEC-SC-mpi/custom-build/src/dtu_we_controller_bladed/CMakeFiles/rebuild_cache.dir
C:/Users/valentinc/Workspace/OpenFAST/SuperController/DTUWEC-SC-mpi/custom-build/src/dtu_we_controller_bladed/CMakeFiles/DTUWEC4SC.dir
C:/Users/valentinc/Workspace/OpenFAST/SuperController/DTUWEC-SC-mpi/custom-build/src/dtu_we_controller_bladed/CMakeFiles/edit_cache.dir
C:/Users/valentinc/Workspace/OpenFAST/SuperController/DTUWEC-SC-mpi/custom-build/src/individual_pitch_controller/CMakeFiles/cyclic_pitch_controller.dir
C:/Users/valentinc/Workspace/OpenFAST/SuperController/DTUWEC-SC-mpi/custom-build/src/individual_pitch_controller/CMakeFiles/edit_cache.dir
C:/Users/valentinc/Workspace/OpenFAST/SuperController/DTUWEC-SC-mpi/custom-build/src/individual_pitch_controller/CMakeFiles/rebuild_cache.dir
C:/Users/valentinc/Workspace/OpenFAST/SuperController/DTUWEC-SC-mpi/custom-build/src/flap_controller_individual_aep_u_f/CMakeFiles/individual_flap_controller.dir
C:/Users/valentinc/Workspace/OpenFAST/SuperController/DTUWEC-SC-mpi/custom-build/src/flap_controller_individual_aep_u_f/CMakeFiles/edit_cache.dir
C:/Users/valentinc/Workspace/OpenFAST/SuperController/DTUWEC-SC-mpi/custom-build/src/flap_controller_individual_aep_u_f/CMakeFiles/rebuild_cache.dir
C:/Users/valentinc/Workspace/OpenFAST/SuperController/DTUWEC-SC-mpi/custom-build/src/flap_controller_cyclic/CMakeFiles/flap_controller_cyclic.dir
C:/Users/valentinc/Workspace/OpenFAST/SuperController/DTUWEC-SC-mpi/custom-build/src/flap_controller_cyclic/CMakeFiles/edit_cache.dir
C:/Users/valentinc/Workspace/OpenFAST/SuperController/DTUWEC-SC-mpi/custom-build/src/flap_controller_cyclic/CMakeFiles/rebuild_cache.dir
