-I"C:/Users/valentinc/Workspace/OpenFAST/SuperController/DTUWEC-SC-mpi/src/flap_controller_individual_aep_u_f" -I"C:/Users/valentinc/Workspace/OpenFAST/SuperController/DTUWEC-SC-mpi/custom-build/src/flap_controller_individual_aep_u_f" -I"C:/Users/valentinc/Workspace/OpenFAST/SuperController/DTUWEC-SC-mpi/utils/portability"
