# CMAKE generated file: DO NOT EDIT!
# Generated by "MinGW Makefiles" Generator, CMake Version 3.30

# Note that incremental build could trigger a call to cmake_copy_f90_mod on each re-build
src/dtu_we_controller/CMakeFiles/dtu_we_controller.dir/__/__/utils/io/dll_utils.f90.obj: src/dtu_we_controller/CMakeFiles/dtu_we_controller.dir/dfwin.mod.stamp
src/dtu_we_controller/CMakeFiles/dtu_we_controller.dir/__/__/utils/io/dll_utils.f90.obj: src/dtu_we_controller/CMakeFiles/dtu_we_controller.dir/filesystem_tools.mod.stamp
src/dtu_we_controller/CMakeFiles/dtu_we_controller.dir/__/__/utils/io/dll_utils.f90.obj: src/dtu_we_controller/CMakeFiles/dtu_we_controller.dir/logging.mod.stamp
src/dtu_we_controller/CMakeFiles/dtu_we_controller.dir/__/__/utils/io/dll_utils.f90.obj: src/dtu_we_controller/CMakeFiles/dtu_we_controller.dir/path_utils.mod.stamp
src/dtu_we_controller/CMakeFiles/dtu_we_controller.dir/__/__/utils/io/dll_utils.f90.obj: src/dtu_we_controller/CMakeFiles/dtu_we_controller.dir/stringutils.mod.stamp
src/dtu_we_controller/CMakeFiles/dtu_we_controller.dir/__/__/utils/io/dll_utils.f90.obj.provides.build: src/dtu_we_controller/CMakeFiles/dtu_we_controller.dir/dll_utils.mod.stamp
src/dtu_we_controller/CMakeFiles/dtu_we_controller.dir/dll_utils.mod.stamp: src/dtu_we_controller/CMakeFiles/dtu_we_controller.dir/__/__/utils/io/dll_utils.f90.obj
	$(CMAKE_COMMAND) -E cmake_copy_f90_mod src\dtu_we_controller\dll_utils.mod src\dtu_we_controller\CMakeFiles\dtu_we_controller.dir\dll_utils.mod.stamp GNU
src/dtu_we_controller/CMakeFiles/dtu_we_controller.dir/__/__/utils/io/dll_utils.f90.obj.provides.build:
	$(CMAKE_COMMAND) -E touch src/dtu_we_controller/CMakeFiles/dtu_we_controller.dir/__/__/utils/io/dll_utils.f90.obj.provides.build
src/dtu_we_controller/CMakeFiles/dtu_we_controller.dir/build: src/dtu_we_controller/CMakeFiles/dtu_we_controller.dir/__/__/utils/io/dll_utils.f90.obj.provides.build
src/dtu_we_controller/CMakeFiles/dtu_we_controller.dir/__/__/utils/io/logging.f90.obj: \
 C:/Users/valentinc/Workspace/OpenFAST/SuperController/DTUWEC-SC-mpi/src/dtu_we_controller/file_info.h
src/dtu_we_controller/CMakeFiles/dtu_we_controller.dir/__/__/utils/io/logging.f90.obj: src/dtu_we_controller/CMakeFiles/dtu_we_controller.dir/buildinfo.mod.stamp
src/dtu_we_controller/CMakeFiles/dtu_we_controller.dir/__/__/utils/io/logging.f90.obj: src/dtu_we_controller/CMakeFiles/dtu_we_controller.dir/dfwin.mod.stamp
src/dtu_we_controller/CMakeFiles/dtu_we_controller.dir/__/__/utils/io/logging.f90.obj: src/dtu_we_controller/CMakeFiles/dtu_we_controller.dir/stringutils.mod.stamp
src/dtu_we_controller/CMakeFiles/dtu_we_controller.dir/__/__/utils/io/logging.f90.obj.provides.build: src/dtu_we_controller/CMakeFiles/dtu_we_controller.dir/logging.mod.stamp
src/dtu_we_controller/CMakeFiles/dtu_we_controller.dir/logging.mod.stamp: src/dtu_we_controller/CMakeFiles/dtu_we_controller.dir/__/__/utils/io/logging.f90.obj
	$(CMAKE_COMMAND) -E cmake_copy_f90_mod src\dtu_we_controller\logging.mod src\dtu_we_controller\CMakeFiles\dtu_we_controller.dir\logging.mod.stamp GNU
src/dtu_we_controller/CMakeFiles/dtu_we_controller.dir/__/__/utils/io/logging.f90.obj.provides.build:
	$(CMAKE_COMMAND) -E touch src/dtu_we_controller/CMakeFiles/dtu_we_controller.dir/__/__/utils/io/logging.f90.obj.provides.build
src/dtu_we_controller/CMakeFiles/dtu_we_controller.dir/build: src/dtu_we_controller/CMakeFiles/dtu_we_controller.dir/__/__/utils/io/logging.f90.obj.provides.build
src/dtu_we_controller/CMakeFiles/dtu_we_controller.dir/__/__/utils/io/path_utils.f90.obj: src/dtu_we_controller/CMakeFiles/dtu_we_controller.dir/filesystem_tools.mod.stamp
src/dtu_we_controller/CMakeFiles/dtu_we_controller.dir/__/__/utils/io/path_utils.f90.obj: src/dtu_we_controller/CMakeFiles/dtu_we_controller.dir/logging.mod.stamp
src/dtu_we_controller/CMakeFiles/dtu_we_controller.dir/__/__/utils/io/path_utils.f90.obj: src/dtu_we_controller/CMakeFiles/dtu_we_controller.dir/stringutils.mod.stamp
src/dtu_we_controller/CMakeFiles/dtu_we_controller.dir/__/__/utils/io/path_utils.f90.obj.provides.build: src/dtu_we_controller/CMakeFiles/dtu_we_controller.dir/path_utils.mod.stamp
src/dtu_we_controller/CMakeFiles/dtu_we_controller.dir/path_utils.mod.stamp: src/dtu_we_controller/CMakeFiles/dtu_we_controller.dir/__/__/utils/io/path_utils.f90.obj
	$(CMAKE_COMMAND) -E cmake_copy_f90_mod src\dtu_we_controller\path_utils.mod src\dtu_we_controller\CMakeFiles\dtu_we_controller.dir\path_utils.mod.stamp GNU
src/dtu_we_controller/CMakeFiles/dtu_we_controller.dir/__/__/utils/io/path_utils.f90.obj.provides.build:
	$(CMAKE_COMMAND) -E touch src/dtu_we_controller/CMakeFiles/dtu_we_controller.dir/__/__/utils/io/path_utils.f90.obj.provides.build
src/dtu_we_controller/CMakeFiles/dtu_we_controller.dir/build: src/dtu_we_controller/CMakeFiles/dtu_we_controller.dir/__/__/utils/io/path_utils.f90.obj.provides.build
src/dtu_we_controller/CMakeFiles/dtu_we_controller.dir/__/__/utils/portability/dfwin_gfortran.f90.obj.provides.build: src/dtu_we_controller/CMakeFiles/dtu_we_controller.dir/dfwin.mod.stamp
src/dtu_we_controller/CMakeFiles/dtu_we_controller.dir/dfwin.mod.stamp: src/dtu_we_controller/CMakeFiles/dtu_we_controller.dir/__/__/utils/portability/dfwin_gfortran.f90.obj
	$(CMAKE_COMMAND) -E cmake_copy_f90_mod src\dtu_we_controller\dfwin.mod src\dtu_we_controller\CMakeFiles\dtu_we_controller.dir\dfwin.mod.stamp GNU
src/dtu_we_controller/CMakeFiles/dtu_we_controller.dir/__/__/utils/portability/dfwin_gfortran.f90.obj.provides.build:
	$(CMAKE_COMMAND) -E touch src/dtu_we_controller/CMakeFiles/dtu_we_controller.dir/__/__/utils/portability/dfwin_gfortran.f90.obj.provides.build
src/dtu_we_controller/CMakeFiles/dtu_we_controller.dir/build: src/dtu_we_controller/CMakeFiles/dtu_we_controller.dir/__/__/utils/portability/dfwin_gfortran.f90.obj.provides.build
src/dtu_we_controller/CMakeFiles/dtu_we_controller.dir/__/__/utils/portability/filesystem_tools_gfortran.f90.obj: src/dtu_we_controller/CMakeFiles/dtu_we_controller.dir/dfwin.mod.stamp
src/dtu_we_controller/CMakeFiles/dtu_we_controller.dir/__/__/utils/portability/filesystem_tools_gfortran.f90.obj.provides.build: src/dtu_we_controller/CMakeFiles/dtu_we_controller.dir/filesystem_tools.mod.stamp
src/dtu_we_controller/CMakeFiles/dtu_we_controller.dir/filesystem_tools.mod.stamp: src/dtu_we_controller/CMakeFiles/dtu_we_controller.dir/__/__/utils/portability/filesystem_tools_gfortran.f90.obj
	$(CMAKE_COMMAND) -E cmake_copy_f90_mod src\dtu_we_controller\filesystem_tools.mod src\dtu_we_controller\CMakeFiles\dtu_we_controller.dir\filesystem_tools.mod.stamp GNU
src/dtu_we_controller/CMakeFiles/dtu_we_controller.dir/__/__/utils/portability/filesystem_tools_gfortran.f90.obj.provides.build:
	$(CMAKE_COMMAND) -E touch src/dtu_we_controller/CMakeFiles/dtu_we_controller.dir/__/__/utils/portability/filesystem_tools_gfortran.f90.obj.provides.build
src/dtu_we_controller/CMakeFiles/dtu_we_controller.dir/build: src/dtu_we_controller/CMakeFiles/dtu_we_controller.dir/__/__/utils/portability/filesystem_tools_gfortran.f90.obj.provides.build
src/dtu_we_controller/CMakeFiles/dtu_we_controller.dir/__/__/utils/utils/string_utils.f90.obj.provides.build: src/dtu_we_controller/CMakeFiles/dtu_we_controller.dir/stringutils.mod.stamp
src/dtu_we_controller/CMakeFiles/dtu_we_controller.dir/stringutils.mod.stamp: src/dtu_we_controller/CMakeFiles/dtu_we_controller.dir/__/__/utils/utils/string_utils.f90.obj
	$(CMAKE_COMMAND) -E cmake_copy_f90_mod src\dtu_we_controller\stringutils.mod src\dtu_we_controller\CMakeFiles\dtu_we_controller.dir\stringutils.mod.stamp GNU
src/dtu_we_controller/CMakeFiles/dtu_we_controller.dir/__/__/utils/utils/string_utils.f90.obj.provides.build:
	$(CMAKE_COMMAND) -E touch src/dtu_we_controller/CMakeFiles/dtu_we_controller.dir/__/__/utils/utils/string_utils.f90.obj.provides.build
src/dtu_we_controller/CMakeFiles/dtu_we_controller.dir/build: src/dtu_we_controller/CMakeFiles/dtu_we_controller.dir/__/__/utils/utils/string_utils.f90.obj.provides.build
src/dtu_we_controller/CMakeFiles/dtu_we_controller.dir/__/__/utils/version/BuildInfo.f90.obj: \
 C:/Users/valentinc/Workspace/OpenFAST/SuperController/DTUWEC-SC-mpi/src/dtu_we_controller/file_info.h \
 C:/Users/valentinc/Workspace/OpenFAST/SuperController/DTUWEC-SC-mpi/utils/version/version.h
src/dtu_we_controller/CMakeFiles/dtu_we_controller.dir/__/__/utils/version/BuildInfo.f90.obj.provides.build: src/dtu_we_controller/CMakeFiles/dtu_we_controller.dir/buildinfo.mod.stamp
src/dtu_we_controller/CMakeFiles/dtu_we_controller.dir/buildinfo.mod.stamp: src/dtu_we_controller/CMakeFiles/dtu_we_controller.dir/__/__/utils/version/BuildInfo.f90.obj
	$(CMAKE_COMMAND) -E cmake_copy_f90_mod src\dtu_we_controller\buildinfo.mod src\dtu_we_controller\CMakeFiles\dtu_we_controller.dir\buildinfo.mod.stamp GNU
src/dtu_we_controller/CMakeFiles/dtu_we_controller.dir/__/__/utils/version/BuildInfo.f90.obj.provides.build:
	$(CMAKE_COMMAND) -E touch src/dtu_we_controller/CMakeFiles/dtu_we_controller.dir/__/__/utils/version/BuildInfo.f90.obj.provides.build
src/dtu_we_controller/CMakeFiles/dtu_we_controller.dir/build: src/dtu_we_controller/CMakeFiles/dtu_we_controller.dir/__/__/utils/version/BuildInfo.f90.obj.provides.build
src/dtu_we_controller/CMakeFiles/dtu_we_controller.dir/__/modules/global_constants.f90.obj.provides.build: src/dtu_we_controller/CMakeFiles/dtu_we_controller.dir/global_constants.mod.stamp
src/dtu_we_controller/CMakeFiles/dtu_we_controller.dir/global_constants.mod.stamp: src/dtu_we_controller/CMakeFiles/dtu_we_controller.dir/__/modules/global_constants.f90.obj
	$(CMAKE_COMMAND) -E cmake_copy_f90_mod src\dtu_we_controller\global_constants.mod src\dtu_we_controller\CMakeFiles\dtu_we_controller.dir\global_constants.mod.stamp GNU
src/dtu_we_controller/CMakeFiles/dtu_we_controller.dir/__/modules/global_constants.f90.obj.provides.build:
	$(CMAKE_COMMAND) -E touch src/dtu_we_controller/CMakeFiles/dtu_we_controller.dir/__/modules/global_constants.f90.obj.provides.build
src/dtu_we_controller/CMakeFiles/dtu_we_controller.dir/build: src/dtu_we_controller/CMakeFiles/dtu_we_controller.dir/__/modules/global_constants.f90.obj.provides.build
src/dtu_we_controller/CMakeFiles/dtu_we_controller.dir/__/modules/global_variables.f90.obj: src/dtu_we_controller/CMakeFiles/dtu_we_controller.dir/user_defined_types.mod.stamp
src/dtu_we_controller/CMakeFiles/dtu_we_controller.dir/__/modules/global_variables.f90.obj.provides.build: src/dtu_we_controller/CMakeFiles/dtu_we_controller.dir/global_variables.mod.stamp
src/dtu_we_controller/CMakeFiles/dtu_we_controller.dir/global_variables.mod.stamp: src/dtu_we_controller/CMakeFiles/dtu_we_controller.dir/__/modules/global_variables.f90.obj
	$(CMAKE_COMMAND) -E cmake_copy_f90_mod src\dtu_we_controller\global_variables.mod src\dtu_we_controller\CMakeFiles\dtu_we_controller.dir\global_variables.mod.stamp GNU
src/dtu_we_controller/CMakeFiles/dtu_we_controller.dir/__/modules/global_variables.f90.obj.provides.build:
	$(CMAKE_COMMAND) -E touch src/dtu_we_controller/CMakeFiles/dtu_we_controller.dir/__/modules/global_variables.f90.obj.provides.build
src/dtu_we_controller/CMakeFiles/dtu_we_controller.dir/build: src/dtu_we_controller/CMakeFiles/dtu_we_controller.dir/__/modules/global_variables.f90.obj.provides.build
src/dtu_we_controller/CMakeFiles/dtu_we_controller.dir/__/modules/misc_mod.f90.obj: src/dtu_we_controller/CMakeFiles/dtu_we_controller.dir/user_defined_types.mod.stamp
src/dtu_we_controller/CMakeFiles/dtu_we_controller.dir/__/modules/misc_mod.f90.obj.provides.build: src/dtu_we_controller/CMakeFiles/dtu_we_controller.dir/misc_mod.mod.stamp
src/dtu_we_controller/CMakeFiles/dtu_we_controller.dir/misc_mod.mod.stamp: src/dtu_we_controller/CMakeFiles/dtu_we_controller.dir/__/modules/misc_mod.f90.obj
	$(CMAKE_COMMAND) -E cmake_copy_f90_mod src\dtu_we_controller\misc_mod.mod src\dtu_we_controller\CMakeFiles\dtu_we_controller.dir\misc_mod.mod.stamp GNU
src/dtu_we_controller/CMakeFiles/dtu_we_controller.dir/__/modules/misc_mod.f90.obj.provides.build:
	$(CMAKE_COMMAND) -E touch src/dtu_we_controller/CMakeFiles/dtu_we_controller.dir/__/modules/misc_mod.f90.obj.provides.build
src/dtu_we_controller/CMakeFiles/dtu_we_controller.dir/build: src/dtu_we_controller/CMakeFiles/dtu_we_controller.dir/__/modules/misc_mod.f90.obj.provides.build
src/dtu_we_controller/CMakeFiles/dtu_we_controller.dir/__/modules/user_defined_types.f90.obj: src/dtu_we_controller/CMakeFiles/dtu_we_controller.dir/global_constants.mod.stamp
src/dtu_we_controller/CMakeFiles/dtu_we_controller.dir/__/modules/user_defined_types.f90.obj.provides.build: src/dtu_we_controller/CMakeFiles/dtu_we_controller.dir/user_defined_types.mod.stamp
src/dtu_we_controller/CMakeFiles/dtu_we_controller.dir/user_defined_types.mod.stamp: src/dtu_we_controller/CMakeFiles/dtu_we_controller.dir/__/modules/user_defined_types.f90.obj
	$(CMAKE_COMMAND) -E cmake_copy_f90_mod src\dtu_we_controller\user_defined_types.mod src\dtu_we_controller\CMakeFiles\dtu_we_controller.dir\user_defined_types.mod.stamp GNU
src/dtu_we_controller/CMakeFiles/dtu_we_controller.dir/__/modules/user_defined_types.f90.obj.provides.build:
	$(CMAKE_COMMAND) -E touch src/dtu_we_controller/CMakeFiles/dtu_we_controller.dir/__/modules/user_defined_types.f90.obj.provides.build
src/dtu_we_controller/CMakeFiles/dtu_we_controller.dir/build: src/dtu_we_controller/CMakeFiles/dtu_we_controller.dir/__/modules/user_defined_types.f90.obj.provides.build
src/dtu_we_controller/CMakeFiles/dtu_we_controller.dir/dtu_we_controller.f90.obj: src/dtu_we_controller/CMakeFiles/dtu_we_controller.dir/buildinfo.mod.stamp
src/dtu_we_controller/CMakeFiles/dtu_we_controller.dir/dtu_we_controller.f90.obj: src/dtu_we_controller/CMakeFiles/dtu_we_controller.dir/dll_utils.mod.stamp
src/dtu_we_controller/CMakeFiles/dtu_we_controller.dir/dtu_we_controller.f90.obj: src/dtu_we_controller/CMakeFiles/dtu_we_controller.dir/dtu_we_controller_fcns.mod.stamp
src/dtu_we_controller/CMakeFiles/dtu_we_controller.dir/dtu_we_controller.f90.obj: src/dtu_we_controller/CMakeFiles/dtu_we_controller.dir/floating_controller_mod.mod.stamp
src/dtu_we_controller/CMakeFiles/dtu_we_controller.dir/dtu_we_controller.f90.obj: src/dtu_we_controller/CMakeFiles/dtu_we_controller.dir/safety_system_mod.mod.stamp
src/dtu_we_controller/CMakeFiles/dtu_we_controller.dir/dtu_we_controller.f90.obj: src/dtu_we_controller/CMakeFiles/dtu_we_controller.dir/turbine_controller_mod.mod.stamp
src/dtu_we_controller/CMakeFiles/dtu_we_controller.dir/dtu_we_controller.f90.obj.provides.build: src/dtu_we_controller/CMakeFiles/dtu_we_controller.dir/dtu_we_controller.mod.stamp
src/dtu_we_controller/CMakeFiles/dtu_we_controller.dir/dtu_we_controller.mod.stamp: src/dtu_we_controller/CMakeFiles/dtu_we_controller.dir/dtu_we_controller.f90.obj
	$(CMAKE_COMMAND) -E cmake_copy_f90_mod src\dtu_we_controller\dtu_we_controller.mod src\dtu_we_controller\CMakeFiles\dtu_we_controller.dir\dtu_we_controller.mod.stamp GNU
src/dtu_we_controller/CMakeFiles/dtu_we_controller.dir/dtu_we_controller.f90.obj.provides.build:
	$(CMAKE_COMMAND) -E touch src/dtu_we_controller/CMakeFiles/dtu_we_controller.dir/dtu_we_controller.f90.obj.provides.build
src/dtu_we_controller/CMakeFiles/dtu_we_controller.dir/build: src/dtu_we_controller/CMakeFiles/dtu_we_controller.dir/dtu_we_controller.f90.obj.provides.build
src/dtu_we_controller/CMakeFiles/dtu_we_controller.dir/dtu_we_controller_fcns.f90.obj: src/dtu_we_controller/CMakeFiles/dtu_we_controller.dir/global_variables.mod.stamp
src/dtu_we_controller/CMakeFiles/dtu_we_controller.dir/dtu_we_controller_fcns.f90.obj: src/dtu_we_controller/CMakeFiles/dtu_we_controller.dir/misc_mod.mod.stamp
src/dtu_we_controller/CMakeFiles/dtu_we_controller.dir/dtu_we_controller_fcns.f90.obj: src/dtu_we_controller/CMakeFiles/dtu_we_controller.dir/user_defined_types.mod.stamp
src/dtu_we_controller/CMakeFiles/dtu_we_controller.dir/dtu_we_controller_fcns.f90.obj.provides.build: src/dtu_we_controller/CMakeFiles/dtu_we_controller.dir/dtu_we_controller_fcns.mod.stamp
src/dtu_we_controller/CMakeFiles/dtu_we_controller.dir/dtu_we_controller_fcns.mod.stamp: src/dtu_we_controller/CMakeFiles/dtu_we_controller.dir/dtu_we_controller_fcns.f90.obj
	$(CMAKE_COMMAND) -E cmake_copy_f90_mod src\dtu_we_controller\dtu_we_controller_fcns.mod src\dtu_we_controller\CMakeFiles\dtu_we_controller.dir\dtu_we_controller_fcns.mod.stamp GNU
src/dtu_we_controller/CMakeFiles/dtu_we_controller.dir/dtu_we_controller_fcns.f90.obj.provides.build:
	$(CMAKE_COMMAND) -E touch src/dtu_we_controller/CMakeFiles/dtu_we_controller.dir/dtu_we_controller_fcns.f90.obj.provides.build
src/dtu_we_controller/CMakeFiles/dtu_we_controller.dir/build: src/dtu_we_controller/CMakeFiles/dtu_we_controller.dir/dtu_we_controller_fcns.f90.obj.provides.build
src/dtu_we_controller/CMakeFiles/dtu_we_controller.dir/floating_controller.f90.obj: src/dtu_we_controller/CMakeFiles/dtu_we_controller.dir/global_variables.mod.stamp
src/dtu_we_controller/CMakeFiles/dtu_we_controller.dir/floating_controller.f90.obj: src/dtu_we_controller/CMakeFiles/dtu_we_controller.dir/misc_mod.mod.stamp
src/dtu_we_controller/CMakeFiles/dtu_we_controller.dir/floating_controller.f90.obj: src/dtu_we_controller/CMakeFiles/dtu_we_controller.dir/user_defined_types.mod.stamp
src/dtu_we_controller/CMakeFiles/dtu_we_controller.dir/floating_controller.f90.obj.provides.build: src/dtu_we_controller/CMakeFiles/dtu_we_controller.dir/floating_controller_mod.mod.stamp
src/dtu_we_controller/CMakeFiles/dtu_we_controller.dir/floating_controller_mod.mod.stamp: src/dtu_we_controller/CMakeFiles/dtu_we_controller.dir/floating_controller.f90.obj
	$(CMAKE_COMMAND) -E cmake_copy_f90_mod src\dtu_we_controller\floating_controller_mod.mod src\dtu_we_controller\CMakeFiles\dtu_we_controller.dir\floating_controller_mod.mod.stamp GNU
src/dtu_we_controller/CMakeFiles/dtu_we_controller.dir/floating_controller.f90.obj.provides.build:
	$(CMAKE_COMMAND) -E touch src/dtu_we_controller/CMakeFiles/dtu_we_controller.dir/floating_controller.f90.obj.provides.build
src/dtu_we_controller/CMakeFiles/dtu_we_controller.dir/build: src/dtu_we_controller/CMakeFiles/dtu_we_controller.dir/floating_controller.f90.obj.provides.build
src/dtu_we_controller/CMakeFiles/dtu_we_controller.dir/safety_system.f90.obj: src/dtu_we_controller/CMakeFiles/dtu_we_controller.dir/dtu_we_controller_fcns.mod.stamp
src/dtu_we_controller/CMakeFiles/dtu_we_controller.dir/safety_system.f90.obj.provides.build: src/dtu_we_controller/CMakeFiles/dtu_we_controller.dir/safety_system_mod.mod.stamp
src/dtu_we_controller/CMakeFiles/dtu_we_controller.dir/safety_system_mod.mod.stamp: src/dtu_we_controller/CMakeFiles/dtu_we_controller.dir/safety_system.f90.obj
	$(CMAKE_COMMAND) -E cmake_copy_f90_mod src\dtu_we_controller\safety_system_mod.mod src\dtu_we_controller\CMakeFiles\dtu_we_controller.dir\safety_system_mod.mod.stamp GNU
src/dtu_we_controller/CMakeFiles/dtu_we_controller.dir/safety_system.f90.obj.provides.build:
	$(CMAKE_COMMAND) -E touch src/dtu_we_controller/CMakeFiles/dtu_we_controller.dir/safety_system.f90.obj.provides.build
src/dtu_we_controller/CMakeFiles/dtu_we_controller.dir/build: src/dtu_we_controller/CMakeFiles/dtu_we_controller.dir/safety_system.f90.obj.provides.build
src/dtu_we_controller/CMakeFiles/dtu_we_controller.dir/turbine_controller.f90.obj: src/dtu_we_controller/CMakeFiles/dtu_we_controller.dir/dtu_we_controller_fcns.mod.stamp
src/dtu_we_controller/CMakeFiles/dtu_we_controller.dir/turbine_controller.f90.obj: src/dtu_we_controller/CMakeFiles/dtu_we_controller.dir/logging.mod.stamp
src/dtu_we_controller/CMakeFiles/dtu_we_controller.dir/turbine_controller.f90.obj.provides.build: src/dtu_we_controller/CMakeFiles/dtu_we_controller.dir/turbine_controller_mod.mod.stamp
src/dtu_we_controller/CMakeFiles/dtu_we_controller.dir/turbine_controller_mod.mod.stamp: src/dtu_we_controller/CMakeFiles/dtu_we_controller.dir/turbine_controller.f90.obj
	$(CMAKE_COMMAND) -E cmake_copy_f90_mod src\dtu_we_controller\turbine_controller_mod.mod src\dtu_we_controller\CMakeFiles\dtu_we_controller.dir\turbine_controller_mod.mod.stamp GNU
src/dtu_we_controller/CMakeFiles/dtu_we_controller.dir/turbine_controller.f90.obj.provides.build:
	$(CMAKE_COMMAND) -E touch src/dtu_we_controller/CMakeFiles/dtu_we_controller.dir/turbine_controller.f90.obj.provides.build
src/dtu_we_controller/CMakeFiles/dtu_we_controller.dir/build: src/dtu_we_controller/CMakeFiles/dtu_we_controller.dir/turbine_controller.f90.obj.provides.build
src/dtu_we_controller/CMakeFiles/dtu_we_controller.dir/__/__/utils/version/version.rc.obj: \
 C:/Users/valentinc/Workspace/OpenFAST/SuperController/DTUWEC-SC-mpi/src/dtu_we_controller/file_info.h \
 C:/Users/valentinc/Workspace/OpenFAST/SuperController/DTUWEC-SC-mpi/utils/version/version.h \
 C:/Users/valentinc/Workspace/OpenFAST/SuperController/DTUWEC-SC-mpi/utils/version/version.rc
