# CMAKE generated file: DO NOT EDIT!
# Generated by "MinGW Makefiles" Generator, CMake Version 3.16

# compile Fortran with C:/Users/valentinc/msys2/mingw64/bin/gfortran.exe
# compile RC with C:/Users/valentinc/msys2/mingw64/bin/windres.exe
Fortran_FLAGS = -DSC -O3 -march=native -static -fcheck=bounds -fno-asynchronous-unwind-tables   -cpp -ffree-form -ffree-line-length-none -fPIC -fcray-pointer

Fortran_DEFINES = -D_WIN32 -D_WIN64

Fortran_INCLUDES = @CMakeFiles/dtu_we_controller.dir/includes_Fortran.rsp

RC_FLAGS =  

RC_DEFINES = -D_WIN32 -D_WIN64

RC_INCLUDES = -IC:\Users\valentinc\Workspace\OpenFAST\SuperController\DTUWEC-SC-mpi\src\dtu_we_controller -IC:\Users\valentinc\Workspace\OpenFAST\SuperController\DTUWEC-SC-mpi\custom-build\src\dtu_we_controller -IC:\Users\valentinc\Workspace\OpenFAST\SuperController\DTUWEC-SC-mpi\utils\portability 

