-IC:/Users/valentinc/Workspace/OpenFAST/SuperController/DTUWEC-SC-mpi/src/dtu_we_controller -IC:/Users/valentinc/Workspace/OpenFAST/SuperController/DTUWEC-SC-mpi/custom-build/src/dtu_we_controller -IC:/Users/valentinc/Workspace/OpenFAST/SuperController/DTUWEC-SC-mpi/utils/portability 
