# CMAKE generated file: DO NOT EDIT!
# Generated by "MinGW Makefiles" Generator, CMake Version 3.16

src/dtu_we_controller_bladed/CMakeFiles/DTUWEC4SC.dir/__/__/utils/io/dll_utils.f90.obj
 C:/Users/valentinc/Workspace/OpenFAST/SuperController/DTUWEC-SC-mpi/utils/io/dll_utils.f90
src/dtu_we_controller_bladed/CMakeFiles/DTUWEC4SC.dir/__/__/utils/io/logging.f90.obj
 C:/Users/valentinc/Workspace/OpenFAST/SuperController/DTUWEC-SC-mpi/utils/io/logging.f90
 ../src/dtu_we_controller_bladed/file_info.h
src/dtu_we_controller_bladed/CMakeFiles/DTUWEC4SC.dir/__/__/utils/io/path_utils.f90.obj
 C:/Users/valentinc/Workspace/OpenFAST/SuperController/DTUWEC-SC-mpi/utils/io/path_utils.f90
src/dtu_we_controller_bladed/CMakeFiles/DTUWEC4SC.dir/__/__/utils/portability/dfwin_gfortran.f90.obj
 C:/Users/valentinc/Workspace/OpenFAST/SuperController/DTUWEC-SC-mpi/utils/portability/dfwin_gfortran.f90
src/dtu_we_controller_bladed/CMakeFiles/DTUWEC4SC.dir/__/__/utils/portability/filesystem_tools_gfortran.f90.obj
 C:/Users/valentinc/Workspace/OpenFAST/SuperController/DTUWEC-SC-mpi/utils/portability/filesystem_tools_gfortran.f90
src/dtu_we_controller_bladed/CMakeFiles/DTUWEC4SC.dir/__/__/utils/utils/string_utils.f90.obj
 C:/Users/valentinc/Workspace/OpenFAST/SuperController/DTUWEC-SC-mpi/utils/utils/string_utils.f90
src/dtu_we_controller_bladed/CMakeFiles/DTUWEC4SC.dir/__/__/utils/version/BuildInfo.f90.obj
 C:/Users/valentinc/Workspace/OpenFAST/SuperController/DTUWEC-SC-mpi/utils/version/BuildInfo.f90
 ../src/dtu_we_controller_bladed/file_info.h
 C:/Users/valentinc/Workspace/OpenFAST/SuperController/DTUWEC-SC-mpi/utils/version/version.h
src/dtu_we_controller_bladed/CMakeFiles/DTUWEC4SC.dir/__/dtu_we_controller/dtu_we_controller.f90.obj
 C:/Users/valentinc/Workspace/OpenFAST/SuperController/DTUWEC-SC-mpi/src/dtu_we_controller/dtu_we_controller.f90
src/dtu_we_controller_bladed/CMakeFiles/DTUWEC4SC.dir/__/dtu_we_controller/dtu_we_controller_fcns.f90.obj
 C:/Users/valentinc/Workspace/OpenFAST/SuperController/DTUWEC-SC-mpi/src/dtu_we_controller/dtu_we_controller_fcns.f90
src/dtu_we_controller_bladed/CMakeFiles/DTUWEC4SC.dir/__/dtu_we_controller/floating_controller.f90.obj
 C:/Users/valentinc/Workspace/OpenFAST/SuperController/DTUWEC-SC-mpi/src/dtu_we_controller/floating_controller.f90
src/dtu_we_controller_bladed/CMakeFiles/DTUWEC4SC.dir/__/dtu_we_controller/safety_system.f90.obj
 C:/Users/valentinc/Workspace/OpenFAST/SuperController/DTUWEC-SC-mpi/src/dtu_we_controller/safety_system.f90
src/dtu_we_controller_bladed/CMakeFiles/DTUWEC4SC.dir/__/dtu_we_controller/turbine_controller.f90.obj
 C:/Users/valentinc/Workspace/OpenFAST/SuperController/DTUWEC-SC-mpi/src/dtu_we_controller/turbine_controller.f90
src/dtu_we_controller_bladed/CMakeFiles/DTUWEC4SC.dir/__/modules/global_constants.f90.obj
 C:/Users/valentinc/Workspace/OpenFAST/SuperController/DTUWEC-SC-mpi/src/modules/global_constants.f90
src/dtu_we_controller_bladed/CMakeFiles/DTUWEC4SC.dir/__/modules/global_variables.f90.obj
 C:/Users/valentinc/Workspace/OpenFAST/SuperController/DTUWEC-SC-mpi/src/modules/global_variables.f90
src/dtu_we_controller_bladed/CMakeFiles/DTUWEC4SC.dir/__/modules/misc_mod.f90.obj
 C:/Users/valentinc/Workspace/OpenFAST/SuperController/DTUWEC-SC-mpi/src/modules/misc_mod.f90
src/dtu_we_controller_bladed/CMakeFiles/DTUWEC4SC.dir/__/modules/user_defined_types.f90.obj
 C:/Users/valentinc/Workspace/OpenFAST/SuperController/DTUWEC-SC-mpi/src/modules/user_defined_types.f90
src/dtu_we_controller_bladed/CMakeFiles/DTUWEC4SC.dir/dtu_we_controller_bladed.f90.obj
 C:/Users/valentinc/Workspace/OpenFAST/SuperController/DTUWEC-SC-mpi/src/dtu_we_controller_bladed/dtu_we_controller_bladed.f90
src/dtu_we_controller_bladed/CMakeFiles/DTUWEC4SC.dir/__/__/utils/version/version.rc.obj
 ../src/dtu_we_controller_bladed/file_info.h
 C:/Users/valentinc/Workspace/OpenFAST/SuperController/DTUWEC-SC-mpi/utils/version/version.h
 C:/Users/valentinc/Workspace/OpenFAST/SuperController/DTUWEC-SC-mpi/utils/version/version.rc
