# CMAKE generated file: DO NOT EDIT!
# Generated by "MinGW Makefiles" Generator, CMake Version 3.26

# Note that incremental build could trigger a call to cmake_copy_f90_mod on each re-build
src/dtu_we_controller_bladed/CMakeFiles/DTUWEC4SC.dir/__/__/utils/io/dll_utils.f90.obj: src/dtu_we_controller_bladed/CMakeFiles/DTUWEC4SC.dir/dfwin.mod.stamp
src/dtu_we_controller_bladed/CMakeFiles/DTUWEC4SC.dir/__/__/utils/io/dll_utils.f90.obj: src/dtu_we_controller_bladed/CMakeFiles/DTUWEC4SC.dir/filesystem_tools.mod.stamp
src/dtu_we_controller_bladed/CMakeFiles/DTUWEC4SC.dir/__/__/utils/io/dll_utils.f90.obj: src/dtu_we_controller_bladed/CMakeFiles/DTUWEC4SC.dir/logging.mod.stamp
src/dtu_we_controller_bladed/CMakeFiles/DTUWEC4SC.dir/__/__/utils/io/dll_utils.f90.obj: src/dtu_we_controller_bladed/CMakeFiles/DTUWEC4SC.dir/path_utils.mod.stamp
src/dtu_we_controller_bladed/CMakeFiles/DTUWEC4SC.dir/__/__/utils/io/dll_utils.f90.obj: src/dtu_we_controller_bladed/CMakeFiles/DTUWEC4SC.dir/stringutils.mod.stamp
src/dtu_we_controller_bladed/CMakeFiles/DTUWEC4SC.dir/__/__/utils/io/dll_utils.f90.obj.provides.build: src/dtu_we_controller_bladed/CMakeFiles/DTUWEC4SC.dir/dll_utils.mod.stamp
src/dtu_we_controller_bladed/CMakeFiles/DTUWEC4SC.dir/dll_utils.mod.stamp: src/dtu_we_controller_bladed/CMakeFiles/DTUWEC4SC.dir/__/__/utils/io/dll_utils.f90.obj
	$(CMAKE_COMMAND) -E cmake_copy_f90_mod src\dtu_we_controller_bladed\dll_utils.mod src\dtu_we_controller_bladed\CMakeFiles\DTUWEC4SC.dir\dll_utils.mod.stamp GNU
src/dtu_we_controller_bladed/CMakeFiles/DTUWEC4SC.dir/__/__/utils/io/dll_utils.f90.obj.provides.build:
	$(CMAKE_COMMAND) -E touch src/dtu_we_controller_bladed/CMakeFiles/DTUWEC4SC.dir/__/__/utils/io/dll_utils.f90.obj.provides.build
src/dtu_we_controller_bladed/CMakeFiles/DTUWEC4SC.dir/build: src/dtu_we_controller_bladed/CMakeFiles/DTUWEC4SC.dir/__/__/utils/io/dll_utils.f90.obj.provides.build
src/dtu_we_controller_bladed/CMakeFiles/DTUWEC4SC.dir/__/__/utils/io/logging.f90.obj: \
 C:/Users/valentinc/Workspace/OpenFAST/SuperController/DTUWEC-SC-mpi/src/dtu_we_controller_bladed/file_info.h
src/dtu_we_controller_bladed/CMakeFiles/DTUWEC4SC.dir/__/__/utils/io/logging.f90.obj: src/dtu_we_controller_bladed/CMakeFiles/DTUWEC4SC.dir/buildinfo.mod.stamp
src/dtu_we_controller_bladed/CMakeFiles/DTUWEC4SC.dir/__/__/utils/io/logging.f90.obj: src/dtu_we_controller_bladed/CMakeFiles/DTUWEC4SC.dir/dfwin.mod.stamp
src/dtu_we_controller_bladed/CMakeFiles/DTUWEC4SC.dir/__/__/utils/io/logging.f90.obj: src/dtu_we_controller_bladed/CMakeFiles/DTUWEC4SC.dir/stringutils.mod.stamp
src/dtu_we_controller_bladed/CMakeFiles/DTUWEC4SC.dir/__/__/utils/io/logging.f90.obj.provides.build: src/dtu_we_controller_bladed/CMakeFiles/DTUWEC4SC.dir/logging.mod.stamp
src/dtu_we_controller_bladed/CMakeFiles/DTUWEC4SC.dir/logging.mod.stamp: src/dtu_we_controller_bladed/CMakeFiles/DTUWEC4SC.dir/__/__/utils/io/logging.f90.obj
	$(CMAKE_COMMAND) -E cmake_copy_f90_mod src\dtu_we_controller_bladed\logging.mod src\dtu_we_controller_bladed\CMakeFiles\DTUWEC4SC.dir\logging.mod.stamp GNU
src/dtu_we_controller_bladed/CMakeFiles/DTUWEC4SC.dir/__/__/utils/io/logging.f90.obj.provides.build:
	$(CMAKE_COMMAND) -E touch src/dtu_we_controller_bladed/CMakeFiles/DTUWEC4SC.dir/__/__/utils/io/logging.f90.obj.provides.build
src/dtu_we_controller_bladed/CMakeFiles/DTUWEC4SC.dir/build: src/dtu_we_controller_bladed/CMakeFiles/DTUWEC4SC.dir/__/__/utils/io/logging.f90.obj.provides.build
src/dtu_we_controller_bladed/CMakeFiles/DTUWEC4SC.dir/__/__/utils/io/path_utils.f90.obj: src/dtu_we_controller_bladed/CMakeFiles/DTUWEC4SC.dir/filesystem_tools.mod.stamp
src/dtu_we_controller_bladed/CMakeFiles/DTUWEC4SC.dir/__/__/utils/io/path_utils.f90.obj: src/dtu_we_controller_bladed/CMakeFiles/DTUWEC4SC.dir/logging.mod.stamp
src/dtu_we_controller_bladed/CMakeFiles/DTUWEC4SC.dir/__/__/utils/io/path_utils.f90.obj: src/dtu_we_controller_bladed/CMakeFiles/DTUWEC4SC.dir/stringutils.mod.stamp
src/dtu_we_controller_bladed/CMakeFiles/DTUWEC4SC.dir/__/__/utils/io/path_utils.f90.obj.provides.build: src/dtu_we_controller_bladed/CMakeFiles/DTUWEC4SC.dir/path_utils.mod.stamp
src/dtu_we_controller_bladed/CMakeFiles/DTUWEC4SC.dir/path_utils.mod.stamp: src/dtu_we_controller_bladed/CMakeFiles/DTUWEC4SC.dir/__/__/utils/io/path_utils.f90.obj
	$(CMAKE_COMMAND) -E cmake_copy_f90_mod src\dtu_we_controller_bladed\path_utils.mod src\dtu_we_controller_bladed\CMakeFiles\DTUWEC4SC.dir\path_utils.mod.stamp GNU
src/dtu_we_controller_bladed/CMakeFiles/DTUWEC4SC.dir/__/__/utils/io/path_utils.f90.obj.provides.build:
	$(CMAKE_COMMAND) -E touch src/dtu_we_controller_bladed/CMakeFiles/DTUWEC4SC.dir/__/__/utils/io/path_utils.f90.obj.provides.build
src/dtu_we_controller_bladed/CMakeFiles/DTUWEC4SC.dir/build: src/dtu_we_controller_bladed/CMakeFiles/DTUWEC4SC.dir/__/__/utils/io/path_utils.f90.obj.provides.build
src/dtu_we_controller_bladed/CMakeFiles/DTUWEC4SC.dir/__/__/utils/portability/dfwin_gfortran.f90.obj.provides.build: src/dtu_we_controller_bladed/CMakeFiles/DTUWEC4SC.dir/dfwin.mod.stamp
src/dtu_we_controller_bladed/CMakeFiles/DTUWEC4SC.dir/dfwin.mod.stamp: src/dtu_we_controller_bladed/CMakeFiles/DTUWEC4SC.dir/__/__/utils/portability/dfwin_gfortran.f90.obj
	$(CMAKE_COMMAND) -E cmake_copy_f90_mod src\dtu_we_controller_bladed\dfwin.mod src\dtu_we_controller_bladed\CMakeFiles\DTUWEC4SC.dir\dfwin.mod.stamp GNU
src/dtu_we_controller_bladed/CMakeFiles/DTUWEC4SC.dir/__/__/utils/portability/dfwin_gfortran.f90.obj.provides.build:
	$(CMAKE_COMMAND) -E touch src/dtu_we_controller_bladed/CMakeFiles/DTUWEC4SC.dir/__/__/utils/portability/dfwin_gfortran.f90.obj.provides.build
src/dtu_we_controller_bladed/CMakeFiles/DTUWEC4SC.dir/build: src/dtu_we_controller_bladed/CMakeFiles/DTUWEC4SC.dir/__/__/utils/portability/dfwin_gfortran.f90.obj.provides.build
src/dtu_we_controller_bladed/CMakeFiles/DTUWEC4SC.dir/__/__/utils/portability/filesystem_tools_gfortran.f90.obj: src/dtu_we_controller_bladed/CMakeFiles/DTUWEC4SC.dir/dfwin.mod.stamp
src/dtu_we_controller_bladed/CMakeFiles/DTUWEC4SC.dir/__/__/utils/portability/filesystem_tools_gfortran.f90.obj.provides.build: src/dtu_we_controller_bladed/CMakeFiles/DTUWEC4SC.dir/filesystem_tools.mod.stamp
src/dtu_we_controller_bladed/CMakeFiles/DTUWEC4SC.dir/filesystem_tools.mod.stamp: src/dtu_we_controller_bladed/CMakeFiles/DTUWEC4SC.dir/__/__/utils/portability/filesystem_tools_gfortran.f90.obj
	$(CMAKE_COMMAND) -E cmake_copy_f90_mod src\dtu_we_controller_bladed\filesystem_tools.mod src\dtu_we_controller_bladed\CMakeFiles\DTUWEC4SC.dir\filesystem_tools.mod.stamp GNU
src/dtu_we_controller_bladed/CMakeFiles/DTUWEC4SC.dir/__/__/utils/portability/filesystem_tools_gfortran.f90.obj.provides.build:
	$(CMAKE_COMMAND) -E touch src/dtu_we_controller_bladed/CMakeFiles/DTUWEC4SC.dir/__/__/utils/portability/filesystem_tools_gfortran.f90.obj.provides.build
src/dtu_we_controller_bladed/CMakeFiles/DTUWEC4SC.dir/build: src/dtu_we_controller_bladed/CMakeFiles/DTUWEC4SC.dir/__/__/utils/portability/filesystem_tools_gfortran.f90.obj.provides.build
src/dtu_we_controller_bladed/CMakeFiles/DTUWEC4SC.dir/__/__/utils/utils/string_utils.f90.obj.provides.build: src/dtu_we_controller_bladed/CMakeFiles/DTUWEC4SC.dir/stringutils.mod.stamp
src/dtu_we_controller_bladed/CMakeFiles/DTUWEC4SC.dir/stringutils.mod.stamp: src/dtu_we_controller_bladed/CMakeFiles/DTUWEC4SC.dir/__/__/utils/utils/string_utils.f90.obj
	$(CMAKE_COMMAND) -E cmake_copy_f90_mod src\dtu_we_controller_bladed\stringutils.mod src\dtu_we_controller_bladed\CMakeFiles\DTUWEC4SC.dir\stringutils.mod.stamp GNU
src/dtu_we_controller_bladed/CMakeFiles/DTUWEC4SC.dir/__/__/utils/utils/string_utils.f90.obj.provides.build:
	$(CMAKE_COMMAND) -E touch src/dtu_we_controller_bladed/CMakeFiles/DTUWEC4SC.dir/__/__/utils/utils/string_utils.f90.obj.provides.build
src/dtu_we_controller_bladed/CMakeFiles/DTUWEC4SC.dir/build: src/dtu_we_controller_bladed/CMakeFiles/DTUWEC4SC.dir/__/__/utils/utils/string_utils.f90.obj.provides.build
src/dtu_we_controller_bladed/CMakeFiles/DTUWEC4SC.dir/__/__/utils/version/BuildInfo.f90.obj: \
 C:/Users/valentinc/Workspace/OpenFAST/SuperController/DTUWEC-SC-mpi/src/dtu_we_controller_bladed/file_info.h \
 C:/Users/valentinc/Workspace/OpenFAST/SuperController/DTUWEC-SC-mpi/utils/version/version.h
src/dtu_we_controller_bladed/CMakeFiles/DTUWEC4SC.dir/__/__/utils/version/BuildInfo.f90.obj.provides.build: src/dtu_we_controller_bladed/CMakeFiles/DTUWEC4SC.dir/buildinfo.mod.stamp
src/dtu_we_controller_bladed/CMakeFiles/DTUWEC4SC.dir/buildinfo.mod.stamp: src/dtu_we_controller_bladed/CMakeFiles/DTUWEC4SC.dir/__/__/utils/version/BuildInfo.f90.obj
	$(CMAKE_COMMAND) -E cmake_copy_f90_mod src\dtu_we_controller_bladed\buildinfo.mod src\dtu_we_controller_bladed\CMakeFiles\DTUWEC4SC.dir\buildinfo.mod.stamp GNU
src/dtu_we_controller_bladed/CMakeFiles/DTUWEC4SC.dir/__/__/utils/version/BuildInfo.f90.obj.provides.build:
	$(CMAKE_COMMAND) -E touch src/dtu_we_controller_bladed/CMakeFiles/DTUWEC4SC.dir/__/__/utils/version/BuildInfo.f90.obj.provides.build
src/dtu_we_controller_bladed/CMakeFiles/DTUWEC4SC.dir/build: src/dtu_we_controller_bladed/CMakeFiles/DTUWEC4SC.dir/__/__/utils/version/BuildInfo.f90.obj.provides.build
src/dtu_we_controller_bladed/CMakeFiles/DTUWEC4SC.dir/__/dtu_we_controller/dtu_we_controller.f90.obj: src/dtu_we_controller_bladed/CMakeFiles/DTUWEC4SC.dir/buildinfo.mod.stamp
src/dtu_we_controller_bladed/CMakeFiles/DTUWEC4SC.dir/__/dtu_we_controller/dtu_we_controller.f90.obj: src/dtu_we_controller_bladed/CMakeFiles/DTUWEC4SC.dir/dll_utils.mod.stamp
src/dtu_we_controller_bladed/CMakeFiles/DTUWEC4SC.dir/__/dtu_we_controller/dtu_we_controller.f90.obj: src/dtu_we_controller_bladed/CMakeFiles/DTUWEC4SC.dir/dtu_we_controller_fcns.mod.stamp
src/dtu_we_controller_bladed/CMakeFiles/DTUWEC4SC.dir/__/dtu_we_controller/dtu_we_controller.f90.obj: src/dtu_we_controller_bladed/CMakeFiles/DTUWEC4SC.dir/floating_controller_mod.mod.stamp
src/dtu_we_controller_bladed/CMakeFiles/DTUWEC4SC.dir/__/dtu_we_controller/dtu_we_controller.f90.obj: src/dtu_we_controller_bladed/CMakeFiles/DTUWEC4SC.dir/safety_system_mod.mod.stamp
src/dtu_we_controller_bladed/CMakeFiles/DTUWEC4SC.dir/__/dtu_we_controller/dtu_we_controller.f90.obj: src/dtu_we_controller_bladed/CMakeFiles/DTUWEC4SC.dir/turbine_controller_mod.mod.stamp
src/dtu_we_controller_bladed/CMakeFiles/DTUWEC4SC.dir/__/dtu_we_controller/dtu_we_controller.f90.obj.provides.build: src/dtu_we_controller_bladed/CMakeFiles/DTUWEC4SC.dir/dtu_we_controller.mod.stamp
src/dtu_we_controller_bladed/CMakeFiles/DTUWEC4SC.dir/dtu_we_controller.mod.stamp: src/dtu_we_controller_bladed/CMakeFiles/DTUWEC4SC.dir/__/dtu_we_controller/dtu_we_controller.f90.obj
	$(CMAKE_COMMAND) -E cmake_copy_f90_mod src\dtu_we_controller_bladed\dtu_we_controller.mod src\dtu_we_controller_bladed\CMakeFiles\DTUWEC4SC.dir\dtu_we_controller.mod.stamp GNU
src/dtu_we_controller_bladed/CMakeFiles/DTUWEC4SC.dir/__/dtu_we_controller/dtu_we_controller.f90.obj.provides.build:
	$(CMAKE_COMMAND) -E touch src/dtu_we_controller_bladed/CMakeFiles/DTUWEC4SC.dir/__/dtu_we_controller/dtu_we_controller.f90.obj.provides.build
src/dtu_we_controller_bladed/CMakeFiles/DTUWEC4SC.dir/build: src/dtu_we_controller_bladed/CMakeFiles/DTUWEC4SC.dir/__/dtu_we_controller/dtu_we_controller.f90.obj.provides.build
src/dtu_we_controller_bladed/CMakeFiles/DTUWEC4SC.dir/__/dtu_we_controller/dtu_we_controller_fcns.f90.obj: src/dtu_we_controller_bladed/CMakeFiles/DTUWEC4SC.dir/global_variables.mod.stamp
src/dtu_we_controller_bladed/CMakeFiles/DTUWEC4SC.dir/__/dtu_we_controller/dtu_we_controller_fcns.f90.obj: src/dtu_we_controller_bladed/CMakeFiles/DTUWEC4SC.dir/misc_mod.mod.stamp
src/dtu_we_controller_bladed/CMakeFiles/DTUWEC4SC.dir/__/dtu_we_controller/dtu_we_controller_fcns.f90.obj: src/dtu_we_controller_bladed/CMakeFiles/DTUWEC4SC.dir/user_defined_types.mod.stamp
src/dtu_we_controller_bladed/CMakeFiles/DTUWEC4SC.dir/__/dtu_we_controller/dtu_we_controller_fcns.f90.obj.provides.build: src/dtu_we_controller_bladed/CMakeFiles/DTUWEC4SC.dir/dtu_we_controller_fcns.mod.stamp
src/dtu_we_controller_bladed/CMakeFiles/DTUWEC4SC.dir/dtu_we_controller_fcns.mod.stamp: src/dtu_we_controller_bladed/CMakeFiles/DTUWEC4SC.dir/__/dtu_we_controller/dtu_we_controller_fcns.f90.obj
	$(CMAKE_COMMAND) -E cmake_copy_f90_mod src\dtu_we_controller_bladed\dtu_we_controller_fcns.mod src\dtu_we_controller_bladed\CMakeFiles\DTUWEC4SC.dir\dtu_we_controller_fcns.mod.stamp GNU
src/dtu_we_controller_bladed/CMakeFiles/DTUWEC4SC.dir/__/dtu_we_controller/dtu_we_controller_fcns.f90.obj.provides.build:
	$(CMAKE_COMMAND) -E touch src/dtu_we_controller_bladed/CMakeFiles/DTUWEC4SC.dir/__/dtu_we_controller/dtu_we_controller_fcns.f90.obj.provides.build
src/dtu_we_controller_bladed/CMakeFiles/DTUWEC4SC.dir/build: src/dtu_we_controller_bladed/CMakeFiles/DTUWEC4SC.dir/__/dtu_we_controller/dtu_we_controller_fcns.f90.obj.provides.build
src/dtu_we_controller_bladed/CMakeFiles/DTUWEC4SC.dir/__/dtu_we_controller/floating_controller.f90.obj: src/dtu_we_controller_bladed/CMakeFiles/DTUWEC4SC.dir/global_variables.mod.stamp
src/dtu_we_controller_bladed/CMakeFiles/DTUWEC4SC.dir/__/dtu_we_controller/floating_controller.f90.obj: src/dtu_we_controller_bladed/CMakeFiles/DTUWEC4SC.dir/misc_mod.mod.stamp
src/dtu_we_controller_bladed/CMakeFiles/DTUWEC4SC.dir/__/dtu_we_controller/floating_controller.f90.obj: src/dtu_we_controller_bladed/CMakeFiles/DTUWEC4SC.dir/user_defined_types.mod.stamp
src/dtu_we_controller_bladed/CMakeFiles/DTUWEC4SC.dir/__/dtu_we_controller/floating_controller.f90.obj.provides.build: src/dtu_we_controller_bladed/CMakeFiles/DTUWEC4SC.dir/floating_controller_mod.mod.stamp
src/dtu_we_controller_bladed/CMakeFiles/DTUWEC4SC.dir/floating_controller_mod.mod.stamp: src/dtu_we_controller_bladed/CMakeFiles/DTUWEC4SC.dir/__/dtu_we_controller/floating_controller.f90.obj
	$(CMAKE_COMMAND) -E cmake_copy_f90_mod src\dtu_we_controller_bladed\floating_controller_mod.mod src\dtu_we_controller_bladed\CMakeFiles\DTUWEC4SC.dir\floating_controller_mod.mod.stamp GNU
src/dtu_we_controller_bladed/CMakeFiles/DTUWEC4SC.dir/__/dtu_we_controller/floating_controller.f90.obj.provides.build:
	$(CMAKE_COMMAND) -E touch src/dtu_we_controller_bladed/CMakeFiles/DTUWEC4SC.dir/__/dtu_we_controller/floating_controller.f90.obj.provides.build
src/dtu_we_controller_bladed/CMakeFiles/DTUWEC4SC.dir/build: src/dtu_we_controller_bladed/CMakeFiles/DTUWEC4SC.dir/__/dtu_we_controller/floating_controller.f90.obj.provides.build
src/dtu_we_controller_bladed/CMakeFiles/DTUWEC4SC.dir/__/dtu_we_controller/safety_system.f90.obj: src/dtu_we_controller_bladed/CMakeFiles/DTUWEC4SC.dir/dtu_we_controller_fcns.mod.stamp
src/dtu_we_controller_bladed/CMakeFiles/DTUWEC4SC.dir/__/dtu_we_controller/safety_system.f90.obj.provides.build: src/dtu_we_controller_bladed/CMakeFiles/DTUWEC4SC.dir/safety_system_mod.mod.stamp
src/dtu_we_controller_bladed/CMakeFiles/DTUWEC4SC.dir/safety_system_mod.mod.stamp: src/dtu_we_controller_bladed/CMakeFiles/DTUWEC4SC.dir/__/dtu_we_controller/safety_system.f90.obj
	$(CMAKE_COMMAND) -E cmake_copy_f90_mod src\dtu_we_controller_bladed\safety_system_mod.mod src\dtu_we_controller_bladed\CMakeFiles\DTUWEC4SC.dir\safety_system_mod.mod.stamp GNU
src/dtu_we_controller_bladed/CMakeFiles/DTUWEC4SC.dir/__/dtu_we_controller/safety_system.f90.obj.provides.build:
	$(CMAKE_COMMAND) -E touch src/dtu_we_controller_bladed/CMakeFiles/DTUWEC4SC.dir/__/dtu_we_controller/safety_system.f90.obj.provides.build
src/dtu_we_controller_bladed/CMakeFiles/DTUWEC4SC.dir/build: src/dtu_we_controller_bladed/CMakeFiles/DTUWEC4SC.dir/__/dtu_we_controller/safety_system.f90.obj.provides.build
src/dtu_we_controller_bladed/CMakeFiles/DTUWEC4SC.dir/__/dtu_we_controller/turbine_controller.f90.obj: src/dtu_we_controller_bladed/CMakeFiles/DTUWEC4SC.dir/dtu_we_controller_fcns.mod.stamp
src/dtu_we_controller_bladed/CMakeFiles/DTUWEC4SC.dir/__/dtu_we_controller/turbine_controller.f90.obj: src/dtu_we_controller_bladed/CMakeFiles/DTUWEC4SC.dir/logging.mod.stamp
src/dtu_we_controller_bladed/CMakeFiles/DTUWEC4SC.dir/__/dtu_we_controller/turbine_controller.f90.obj.provides.build: src/dtu_we_controller_bladed/CMakeFiles/DTUWEC4SC.dir/turbine_controller_mod.mod.stamp
src/dtu_we_controller_bladed/CMakeFiles/DTUWEC4SC.dir/turbine_controller_mod.mod.stamp: src/dtu_we_controller_bladed/CMakeFiles/DTUWEC4SC.dir/__/dtu_we_controller/turbine_controller.f90.obj
	$(CMAKE_COMMAND) -E cmake_copy_f90_mod src\dtu_we_controller_bladed\turbine_controller_mod.mod src\dtu_we_controller_bladed\CMakeFiles\DTUWEC4SC.dir\turbine_controller_mod.mod.stamp GNU
src/dtu_we_controller_bladed/CMakeFiles/DTUWEC4SC.dir/__/dtu_we_controller/turbine_controller.f90.obj.provides.build:
	$(CMAKE_COMMAND) -E touch src/dtu_we_controller_bladed/CMakeFiles/DTUWEC4SC.dir/__/dtu_we_controller/turbine_controller.f90.obj.provides.build
src/dtu_we_controller_bladed/CMakeFiles/DTUWEC4SC.dir/build: src/dtu_we_controller_bladed/CMakeFiles/DTUWEC4SC.dir/__/dtu_we_controller/turbine_controller.f90.obj.provides.build
src/dtu_we_controller_bladed/CMakeFiles/DTUWEC4SC.dir/__/modules/global_constants.f90.obj.provides.build: src/dtu_we_controller_bladed/CMakeFiles/DTUWEC4SC.dir/global_constants.mod.stamp
src/dtu_we_controller_bladed/CMakeFiles/DTUWEC4SC.dir/global_constants.mod.stamp: src/dtu_we_controller_bladed/CMakeFiles/DTUWEC4SC.dir/__/modules/global_constants.f90.obj
	$(CMAKE_COMMAND) -E cmake_copy_f90_mod src\dtu_we_controller_bladed\global_constants.mod src\dtu_we_controller_bladed\CMakeFiles\DTUWEC4SC.dir\global_constants.mod.stamp GNU
src/dtu_we_controller_bladed/CMakeFiles/DTUWEC4SC.dir/__/modules/global_constants.f90.obj.provides.build:
	$(CMAKE_COMMAND) -E touch src/dtu_we_controller_bladed/CMakeFiles/DTUWEC4SC.dir/__/modules/global_constants.f90.obj.provides.build
src/dtu_we_controller_bladed/CMakeFiles/DTUWEC4SC.dir/build: src/dtu_we_controller_bladed/CMakeFiles/DTUWEC4SC.dir/__/modules/global_constants.f90.obj.provides.build
src/dtu_we_controller_bladed/CMakeFiles/DTUWEC4SC.dir/__/modules/global_variables.f90.obj: src/dtu_we_controller_bladed/CMakeFiles/DTUWEC4SC.dir/user_defined_types.mod.stamp
src/dtu_we_controller_bladed/CMakeFiles/DTUWEC4SC.dir/__/modules/global_variables.f90.obj.provides.build: src/dtu_we_controller_bladed/CMakeFiles/DTUWEC4SC.dir/global_variables.mod.stamp
src/dtu_we_controller_bladed/CMakeFiles/DTUWEC4SC.dir/global_variables.mod.stamp: src/dtu_we_controller_bladed/CMakeFiles/DTUWEC4SC.dir/__/modules/global_variables.f90.obj
	$(CMAKE_COMMAND) -E cmake_copy_f90_mod src\dtu_we_controller_bladed\global_variables.mod src\dtu_we_controller_bladed\CMakeFiles\DTUWEC4SC.dir\global_variables.mod.stamp GNU
src/dtu_we_controller_bladed/CMakeFiles/DTUWEC4SC.dir/__/modules/global_variables.f90.obj.provides.build:
	$(CMAKE_COMMAND) -E touch src/dtu_we_controller_bladed/CMakeFiles/DTUWEC4SC.dir/__/modules/global_variables.f90.obj.provides.build
src/dtu_we_controller_bladed/CMakeFiles/DTUWEC4SC.dir/build: src/dtu_we_controller_bladed/CMakeFiles/DTUWEC4SC.dir/__/modules/global_variables.f90.obj.provides.build
src/dtu_we_controller_bladed/CMakeFiles/DTUWEC4SC.dir/__/modules/misc_mod.f90.obj: src/dtu_we_controller_bladed/CMakeFiles/DTUWEC4SC.dir/user_defined_types.mod.stamp
src/dtu_we_controller_bladed/CMakeFiles/DTUWEC4SC.dir/__/modules/misc_mod.f90.obj.provides.build: src/dtu_we_controller_bladed/CMakeFiles/DTUWEC4SC.dir/misc_mod.mod.stamp
src/dtu_we_controller_bladed/CMakeFiles/DTUWEC4SC.dir/misc_mod.mod.stamp: src/dtu_we_controller_bladed/CMakeFiles/DTUWEC4SC.dir/__/modules/misc_mod.f90.obj
	$(CMAKE_COMMAND) -E cmake_copy_f90_mod src\dtu_we_controller_bladed\misc_mod.mod src\dtu_we_controller_bladed\CMakeFiles\DTUWEC4SC.dir\misc_mod.mod.stamp GNU
src/dtu_we_controller_bladed/CMakeFiles/DTUWEC4SC.dir/__/modules/misc_mod.f90.obj.provides.build:
	$(CMAKE_COMMAND) -E touch src/dtu_we_controller_bladed/CMakeFiles/DTUWEC4SC.dir/__/modules/misc_mod.f90.obj.provides.build
src/dtu_we_controller_bladed/CMakeFiles/DTUWEC4SC.dir/build: src/dtu_we_controller_bladed/CMakeFiles/DTUWEC4SC.dir/__/modules/misc_mod.f90.obj.provides.build
src/dtu_we_controller_bladed/CMakeFiles/DTUWEC4SC.dir/__/modules/user_defined_types.f90.obj: src/dtu_we_controller_bladed/CMakeFiles/DTUWEC4SC.dir/global_constants.mod.stamp
src/dtu_we_controller_bladed/CMakeFiles/DTUWEC4SC.dir/__/modules/user_defined_types.f90.obj.provides.build: src/dtu_we_controller_bladed/CMakeFiles/DTUWEC4SC.dir/user_defined_types.mod.stamp
src/dtu_we_controller_bladed/CMakeFiles/DTUWEC4SC.dir/user_defined_types.mod.stamp: src/dtu_we_controller_bladed/CMakeFiles/DTUWEC4SC.dir/__/modules/user_defined_types.f90.obj
	$(CMAKE_COMMAND) -E cmake_copy_f90_mod src\dtu_we_controller_bladed\user_defined_types.mod src\dtu_we_controller_bladed\CMakeFiles\DTUWEC4SC.dir\user_defined_types.mod.stamp GNU
src/dtu_we_controller_bladed/CMakeFiles/DTUWEC4SC.dir/__/modules/user_defined_types.f90.obj.provides.build:
	$(CMAKE_COMMAND) -E touch src/dtu_we_controller_bladed/CMakeFiles/DTUWEC4SC.dir/__/modules/user_defined_types.f90.obj.provides.build
src/dtu_we_controller_bladed/CMakeFiles/DTUWEC4SC.dir/build: src/dtu_we_controller_bladed/CMakeFiles/DTUWEC4SC.dir/__/modules/user_defined_types.f90.obj.provides.build
src/dtu_we_controller_bladed/CMakeFiles/DTUWEC4SC.dir/dtu_we_controller_bladed.f90.obj: src/dtu_we_controller_bladed/CMakeFiles/DTUWEC4SC.dir/dtu_we_controller.mod.stamp
src/dtu_we_controller_bladed/CMakeFiles/DTUWEC4SC.dir/dtu_we_controller_bladed.f90.obj: src/dtu_we_controller_bladed/CMakeFiles/DTUWEC4SC.dir/misc_mod.mod.stamp
src/dtu_we_controller_bladed/CMakeFiles/DTUWEC4SC.dir/dtu_we_controller_bladed.f90.obj.provides.build: src/dtu_we_controller_bladed/CMakeFiles/DTUWEC4SC.dir/dtu_we_controller_bladed.mod.stamp
src/dtu_we_controller_bladed/CMakeFiles/DTUWEC4SC.dir/dtu_we_controller_bladed.mod.stamp: src/dtu_we_controller_bladed/CMakeFiles/DTUWEC4SC.dir/dtu_we_controller_bladed.f90.obj
	$(CMAKE_COMMAND) -E cmake_copy_f90_mod src\dtu_we_controller_bladed\dtu_we_controller_bladed.mod src\dtu_we_controller_bladed\CMakeFiles\DTUWEC4SC.dir\dtu_we_controller_bladed.mod.stamp GNU
src/dtu_we_controller_bladed/CMakeFiles/DTUWEC4SC.dir/dtu_we_controller_bladed.f90.obj.provides.build:
	$(CMAKE_COMMAND) -E touch src/dtu_we_controller_bladed/CMakeFiles/DTUWEC4SC.dir/dtu_we_controller_bladed.f90.obj.provides.build
src/dtu_we_controller_bladed/CMakeFiles/DTUWEC4SC.dir/build: src/dtu_we_controller_bladed/CMakeFiles/DTUWEC4SC.dir/dtu_we_controller_bladed.f90.obj.provides.build
src/dtu_we_controller_bladed/CMakeFiles/DTUWEC4SC.dir/__/__/utils/version/version.rc.obj: \
 C:/Users/valentinc/Workspace/OpenFAST/SuperController/DTUWEC-SC-mpi/src/dtu_we_controller_bladed/file_info.h \
 C:/Users/valentinc/Workspace/OpenFAST/SuperController/DTUWEC-SC-mpi/utils/version/version.h \
 C:/Users/valentinc/Workspace/OpenFAST/SuperController/DTUWEC-SC-mpi/utils/version/version.rc
