# CMAKE generated file: DO NOT EDIT!
# Generated by "MinGW Makefiles" Generator, CMake Version 3.26

# compile Fortran with C:/Users/valentinc/msys2/mingw64/bin/gfortran.exe
# compile RC with C:/Users/valentinc/msys2/mingw64/bin/windres.exe
Fortran_DEFINES = -DDTUWEC4SC_EXPORTS -D_WIN32 -D_WIN64

Fortran_INCLUDES = @CMakeFiles/DTUWEC4SC.dir/includes_Fortran.rsp

Fortran_FLAGS = -O3 -march=native -static -fcheck=bounds -fno-asynchronous-unwind-tables -cpp -ffree-form -ffree-line-length-none -fPIC -fcray-pointer

RC_DEFINES = -DDTUWEC4SC_EXPORTS -D_WIN32 -D_WIN64

RC_INCLUDES = -I C:\Users\valentinc\Workspace\OpenFAST\SuperController\DTUWEC-SC-mpi\src\dtu_we_controller_bladed -I C:\Users\valentinc\Workspace\OpenFAST\SuperController\DTUWEC-SC-mpi\custom-build\src\dtu_we_controller_bladed -I C:\Users\valentinc\Workspace\OpenFAST\SuperController\DTUWEC-SC-mpi\utils\portability

RC_FLAGS = 

