# CMAKE generated file: DO NOT EDIT!
# Generated by "MinGW Makefiles" Generator, CMake Version 3.26

# Default target executed when no arguments are given to make.
default_target: all
.PHONY : default_target

# Allow only one "make -f Makefile2" at a time, but pass parallelism.
.NOTPARALLEL:

#=============================================================================
# Special targets provided by cmake.

# Disable implicit rules so canonical targets will work.
.SUFFIXES:

# Disable VCS-based implicit rules.
% : %,v

# Disable VCS-based implicit rules.
% : RCS/%

# Disable VCS-based implicit rules.
% : RCS/%,v

# Disable VCS-based implicit rules.
% : SCCS/s.%

# Disable VCS-based implicit rules.
% : s.%

.SUFFIXES: .hpux_make_needs_suffix_list

# Command-line flag to silence nested $(MAKE).
$(VERBOSE)MAKESILENT = -s

#Suppress display of executed commands.
$(VERBOSE).SILENT:

# A target that is always out of date.
cmake_force:
.PHONY : cmake_force

#=============================================================================
# Set environment variables for the build.

SHELL = cmd.exe

# The CMake executable.
CMAKE_COMMAND = "C:\Program Files\CMake\bin\cmake.exe"

# The command to remove a file.
RM = "C:\Program Files\CMake\bin\cmake.exe" -E rm -f

# Escaping for special characters.
EQUALS = =

# The top-level source directory on which CMake was run.
CMAKE_SOURCE_DIR = C:\Users\valentinc\Workspace\OpenFAST\SuperController\DTUWEC-SC-mpi

# The top-level build directory on which CMake was run.
CMAKE_BINARY_DIR = C:\Users\valentinc\Workspace\OpenFAST\SuperController\DTUWEC-SC-mpi\custom-build

#=============================================================================
# Targets provided globally by CMake.

# Special rule for the target edit_cache
edit_cache:
	@$(CMAKE_COMMAND) -E cmake_echo_color --switch=$(COLOR) --cyan "Running CMake cache editor..."
	"C:\Program Files\CMake\bin\cmake-gui.exe" -S$(CMAKE_SOURCE_DIR) -B$(CMAKE_BINARY_DIR)
.PHONY : edit_cache

# Special rule for the target edit_cache
edit_cache/fast: edit_cache
.PHONY : edit_cache/fast

# Special rule for the target rebuild_cache
rebuild_cache:
	@$(CMAKE_COMMAND) -E cmake_echo_color --switch=$(COLOR) --cyan "Running CMake to regenerate build system..."
	"C:\Program Files\CMake\bin\cmake.exe" --regenerate-during-build -S$(CMAKE_SOURCE_DIR) -B$(CMAKE_BINARY_DIR)
.PHONY : rebuild_cache

# Special rule for the target rebuild_cache
rebuild_cache/fast: rebuild_cache
.PHONY : rebuild_cache/fast

# The main all target
all: cmake_check_build_system
	cd /d C:\Users\valentinc\Workspace\OpenFAST\SuperController\DTUWEC-SC-mpi\custom-build && $(CMAKE_COMMAND) -E cmake_progress_start C:\Users\valentinc\Workspace\OpenFAST\SuperController\DTUWEC-SC-mpi\custom-build\CMakeFiles C:\Users\valentinc\Workspace\OpenFAST\SuperController\DTUWEC-SC-mpi\custom-build\src\flap_controller_individual_aep_u_f\\CMakeFiles\progress.marks
	cd /d C:\Users\valentinc\Workspace\OpenFAST\SuperController\DTUWEC-SC-mpi\custom-build && $(MAKE) $(MAKESILENT) -f CMakeFiles\Makefile2 src/flap_controller_individual_aep_u_f/all
	$(CMAKE_COMMAND) -E cmake_progress_start C:\Users\valentinc\Workspace\OpenFAST\SuperController\DTUWEC-SC-mpi\custom-build\CMakeFiles 0
.PHONY : all

# The main clean target
clean:
	cd /d C:\Users\valentinc\Workspace\OpenFAST\SuperController\DTUWEC-SC-mpi\custom-build && $(MAKE) $(MAKESILENT) -f CMakeFiles\Makefile2 src/flap_controller_individual_aep_u_f/clean
.PHONY : clean

# The main clean target
clean/fast: clean
.PHONY : clean/fast

# Prepare targets for installation.
preinstall: all
	cd /d C:\Users\valentinc\Workspace\OpenFAST\SuperController\DTUWEC-SC-mpi\custom-build && $(MAKE) $(MAKESILENT) -f CMakeFiles\Makefile2 src/flap_controller_individual_aep_u_f/preinstall
.PHONY : preinstall

# Prepare targets for installation.
preinstall/fast:
	cd /d C:\Users\valentinc\Workspace\OpenFAST\SuperController\DTUWEC-SC-mpi\custom-build && $(MAKE) $(MAKESILENT) -f CMakeFiles\Makefile2 src/flap_controller_individual_aep_u_f/preinstall
.PHONY : preinstall/fast

# clear depends
depend:
	cd /d C:\Users\valentinc\Workspace\OpenFAST\SuperController\DTUWEC-SC-mpi\custom-build && $(CMAKE_COMMAND) -S$(CMAKE_SOURCE_DIR) -B$(CMAKE_BINARY_DIR) --check-build-system CMakeFiles\Makefile.cmake 1
.PHONY : depend

# Convenience name for target.
src/flap_controller_individual_aep_u_f/CMakeFiles/individual_flap_controller.dir/rule:
	cd /d C:\Users\valentinc\Workspace\OpenFAST\SuperController\DTUWEC-SC-mpi\custom-build && $(MAKE) $(MAKESILENT) -f CMakeFiles\Makefile2 src/flap_controller_individual_aep_u_f/CMakeFiles/individual_flap_controller.dir/rule
.PHONY : src/flap_controller_individual_aep_u_f/CMakeFiles/individual_flap_controller.dir/rule

# Convenience name for target.
individual_flap_controller: src/flap_controller_individual_aep_u_f/CMakeFiles/individual_flap_controller.dir/rule
.PHONY : individual_flap_controller

# fast build rule for target.
individual_flap_controller/fast:
	cd /d C:\Users\valentinc\Workspace\OpenFAST\SuperController\DTUWEC-SC-mpi\custom-build && $(MAKE) $(MAKESILENT) -f src\flap_controller_individual_aep_u_f\CMakeFiles\individual_flap_controller.dir\build.make src/flap_controller_individual_aep_u_f/CMakeFiles/individual_flap_controller.dir/build
.PHONY : individual_flap_controller/fast

__/__/utils/io/dll_utils.obj: __/__/utils/io/dll_utils.f90.obj
.PHONY : __/__/utils/io/dll_utils.obj

# target to build an object file
__/__/utils/io/dll_utils.f90.obj:
	cd /d C:\Users\valentinc\Workspace\OpenFAST\SuperController\DTUWEC-SC-mpi\custom-build && $(MAKE) $(MAKESILENT) -f src\flap_controller_individual_aep_u_f\CMakeFiles\individual_flap_controller.dir\build.make src/flap_controller_individual_aep_u_f/CMakeFiles/individual_flap_controller.dir/__/__/utils/io/dll_utils.f90.obj
.PHONY : __/__/utils/io/dll_utils.f90.obj

__/__/utils/io/dll_utils.i: __/__/utils/io/dll_utils.f90.i
.PHONY : __/__/utils/io/dll_utils.i

# target to preprocess a source file
__/__/utils/io/dll_utils.f90.i:
	cd /d C:\Users\valentinc\Workspace\OpenFAST\SuperController\DTUWEC-SC-mpi\custom-build && $(MAKE) $(MAKESILENT) -f src\flap_controller_individual_aep_u_f\CMakeFiles\individual_flap_controller.dir\build.make src/flap_controller_individual_aep_u_f/CMakeFiles/individual_flap_controller.dir/__/__/utils/io/dll_utils.f90.i
.PHONY : __/__/utils/io/dll_utils.f90.i

__/__/utils/io/dll_utils.s: __/__/utils/io/dll_utils.f90.s
.PHONY : __/__/utils/io/dll_utils.s

# target to generate assembly for a file
__/__/utils/io/dll_utils.f90.s:
	cd /d C:\Users\valentinc\Workspace\OpenFAST\SuperController\DTUWEC-SC-mpi\custom-build && $(MAKE) $(MAKESILENT) -f src\flap_controller_individual_aep_u_f\CMakeFiles\individual_flap_controller.dir\build.make src/flap_controller_individual_aep_u_f/CMakeFiles/individual_flap_controller.dir/__/__/utils/io/dll_utils.f90.s
.PHONY : __/__/utils/io/dll_utils.f90.s

__/__/utils/io/logging.obj: __/__/utils/io/logging.f90.obj
.PHONY : __/__/utils/io/logging.obj

# target to build an object file
__/__/utils/io/logging.f90.obj:
	cd /d C:\Users\valentinc\Workspace\OpenFAST\SuperController\DTUWEC-SC-mpi\custom-build && $(MAKE) $(MAKESILENT) -f src\flap_controller_individual_aep_u_f\CMakeFiles\individual_flap_controller.dir\build.make src/flap_controller_individual_aep_u_f/CMakeFiles/individual_flap_controller.dir/__/__/utils/io/logging.f90.obj
.PHONY : __/__/utils/io/logging.f90.obj

__/__/utils/io/logging.i: __/__/utils/io/logging.f90.i
.PHONY : __/__/utils/io/logging.i

# target to preprocess a source file
__/__/utils/io/logging.f90.i:
	cd /d C:\Users\valentinc\Workspace\OpenFAST\SuperController\DTUWEC-SC-mpi\custom-build && $(MAKE) $(MAKESILENT) -f src\flap_controller_individual_aep_u_f\CMakeFiles\individual_flap_controller.dir\build.make src/flap_controller_individual_aep_u_f/CMakeFiles/individual_flap_controller.dir/__/__/utils/io/logging.f90.i
.PHONY : __/__/utils/io/logging.f90.i

__/__/utils/io/logging.s: __/__/utils/io/logging.f90.s
.PHONY : __/__/utils/io/logging.s

# target to generate assembly for a file
__/__/utils/io/logging.f90.s:
	cd /d C:\Users\valentinc\Workspace\OpenFAST\SuperController\DTUWEC-SC-mpi\custom-build && $(MAKE) $(MAKESILENT) -f src\flap_controller_individual_aep_u_f\CMakeFiles\individual_flap_controller.dir\build.make src/flap_controller_individual_aep_u_f/CMakeFiles/individual_flap_controller.dir/__/__/utils/io/logging.f90.s
.PHONY : __/__/utils/io/logging.f90.s

__/__/utils/io/path_utils.obj: __/__/utils/io/path_utils.f90.obj
.PHONY : __/__/utils/io/path_utils.obj

# target to build an object file
__/__/utils/io/path_utils.f90.obj:
	cd /d C:\Users\valentinc\Workspace\OpenFAST\SuperController\DTUWEC-SC-mpi\custom-build && $(MAKE) $(MAKESILENT) -f src\flap_controller_individual_aep_u_f\CMakeFiles\individual_flap_controller.dir\build.make src/flap_controller_individual_aep_u_f/CMakeFiles/individual_flap_controller.dir/__/__/utils/io/path_utils.f90.obj
.PHONY : __/__/utils/io/path_utils.f90.obj

__/__/utils/io/path_utils.i: __/__/utils/io/path_utils.f90.i
.PHONY : __/__/utils/io/path_utils.i

# target to preprocess a source file
__/__/utils/io/path_utils.f90.i:
	cd /d C:\Users\valentinc\Workspace\OpenFAST\SuperController\DTUWEC-SC-mpi\custom-build && $(MAKE) $(MAKESILENT) -f src\flap_controller_individual_aep_u_f\CMakeFiles\individual_flap_controller.dir\build.make src/flap_controller_individual_aep_u_f/CMakeFiles/individual_flap_controller.dir/__/__/utils/io/path_utils.f90.i
.PHONY : __/__/utils/io/path_utils.f90.i

__/__/utils/io/path_utils.s: __/__/utils/io/path_utils.f90.s
.PHONY : __/__/utils/io/path_utils.s

# target to generate assembly for a file
__/__/utils/io/path_utils.f90.s:
	cd /d C:\Users\valentinc\Workspace\OpenFAST\SuperController\DTUWEC-SC-mpi\custom-build && $(MAKE) $(MAKESILENT) -f src\flap_controller_individual_aep_u_f\CMakeFiles\individual_flap_controller.dir\build.make src/flap_controller_individual_aep_u_f/CMakeFiles/individual_flap_controller.dir/__/__/utils/io/path_utils.f90.s
.PHONY : __/__/utils/io/path_utils.f90.s

__/__/utils/portability/dfwin_gfortran.obj: __/__/utils/portability/dfwin_gfortran.f90.obj
.PHONY : __/__/utils/portability/dfwin_gfortran.obj

# target to build an object file
__/__/utils/portability/dfwin_gfortran.f90.obj:
	cd /d C:\Users\valentinc\Workspace\OpenFAST\SuperController\DTUWEC-SC-mpi\custom-build && $(MAKE) $(MAKESILENT) -f src\flap_controller_individual_aep_u_f\CMakeFiles\individual_flap_controller.dir\build.make src/flap_controller_individual_aep_u_f/CMakeFiles/individual_flap_controller.dir/__/__/utils/portability/dfwin_gfortran.f90.obj
.PHONY : __/__/utils/portability/dfwin_gfortran.f90.obj

__/__/utils/portability/dfwin_gfortran.i: __/__/utils/portability/dfwin_gfortran.f90.i
.PHONY : __/__/utils/portability/dfwin_gfortran.i

# target to preprocess a source file
__/__/utils/portability/dfwin_gfortran.f90.i:
	cd /d C:\Users\valentinc\Workspace\OpenFAST\SuperController\DTUWEC-SC-mpi\custom-build && $(MAKE) $(MAKESILENT) -f src\flap_controller_individual_aep_u_f\CMakeFiles\individual_flap_controller.dir\build.make src/flap_controller_individual_aep_u_f/CMakeFiles/individual_flap_controller.dir/__/__/utils/portability/dfwin_gfortran.f90.i
.PHONY : __/__/utils/portability/dfwin_gfortran.f90.i

__/__/utils/portability/dfwin_gfortran.s: __/__/utils/portability/dfwin_gfortran.f90.s
.PHONY : __/__/utils/portability/dfwin_gfortran.s

# target to generate assembly for a file
__/__/utils/portability/dfwin_gfortran.f90.s:
	cd /d C:\Users\valentinc\Workspace\OpenFAST\SuperController\DTUWEC-SC-mpi\custom-build && $(MAKE) $(MAKESILENT) -f src\flap_controller_individual_aep_u_f\CMakeFiles\individual_flap_controller.dir\build.make src/flap_controller_individual_aep_u_f/CMakeFiles/individual_flap_controller.dir/__/__/utils/portability/dfwin_gfortran.f90.s
.PHONY : __/__/utils/portability/dfwin_gfortran.f90.s

__/__/utils/portability/filesystem_tools_gfortran.obj: __/__/utils/portability/filesystem_tools_gfortran.f90.obj
.PHONY : __/__/utils/portability/filesystem_tools_gfortran.obj

# target to build an object file
__/__/utils/portability/filesystem_tools_gfortran.f90.obj:
	cd /d C:\Users\valentinc\Workspace\OpenFAST\SuperController\DTUWEC-SC-mpi\custom-build && $(MAKE) $(MAKESILENT) -f src\flap_controller_individual_aep_u_f\CMakeFiles\individual_flap_controller.dir\build.make src/flap_controller_individual_aep_u_f/CMakeFiles/individual_flap_controller.dir/__/__/utils/portability/filesystem_tools_gfortran.f90.obj
.PHONY : __/__/utils/portability/filesystem_tools_gfortran.f90.obj

__/__/utils/portability/filesystem_tools_gfortran.i: __/__/utils/portability/filesystem_tools_gfortran.f90.i
.PHONY : __/__/utils/portability/filesystem_tools_gfortran.i

# target to preprocess a source file
__/__/utils/portability/filesystem_tools_gfortran.f90.i:
	cd /d C:\Users\valentinc\Workspace\OpenFAST\SuperController\DTUWEC-SC-mpi\custom-build && $(MAKE) $(MAKESILENT) -f src\flap_controller_individual_aep_u_f\CMakeFiles\individual_flap_controller.dir\build.make src/flap_controller_individual_aep_u_f/CMakeFiles/individual_flap_controller.dir/__/__/utils/portability/filesystem_tools_gfortran.f90.i
.PHONY : __/__/utils/portability/filesystem_tools_gfortran.f90.i

__/__/utils/portability/filesystem_tools_gfortran.s: __/__/utils/portability/filesystem_tools_gfortran.f90.s
.PHONY : __/__/utils/portability/filesystem_tools_gfortran.s

# target to generate assembly for a file
__/__/utils/portability/filesystem_tools_gfortran.f90.s:
	cd /d C:\Users\valentinc\Workspace\OpenFAST\SuperController\DTUWEC-SC-mpi\custom-build && $(MAKE) $(MAKESILENT) -f src\flap_controller_individual_aep_u_f\CMakeFiles\individual_flap_controller.dir\build.make src/flap_controller_individual_aep_u_f/CMakeFiles/individual_flap_controller.dir/__/__/utils/portability/filesystem_tools_gfortran.f90.s
.PHONY : __/__/utils/portability/filesystem_tools_gfortran.f90.s

__/__/utils/utils/string_utils.obj: __/__/utils/utils/string_utils.f90.obj
.PHONY : __/__/utils/utils/string_utils.obj

# target to build an object file
__/__/utils/utils/string_utils.f90.obj:
	cd /d C:\Users\valentinc\Workspace\OpenFAST\SuperController\DTUWEC-SC-mpi\custom-build && $(MAKE) $(MAKESILENT) -f src\flap_controller_individual_aep_u_f\CMakeFiles\individual_flap_controller.dir\build.make src/flap_controller_individual_aep_u_f/CMakeFiles/individual_flap_controller.dir/__/__/utils/utils/string_utils.f90.obj
.PHONY : __/__/utils/utils/string_utils.f90.obj

__/__/utils/utils/string_utils.i: __/__/utils/utils/string_utils.f90.i
.PHONY : __/__/utils/utils/string_utils.i

# target to preprocess a source file
__/__/utils/utils/string_utils.f90.i:
	cd /d C:\Users\valentinc\Workspace\OpenFAST\SuperController\DTUWEC-SC-mpi\custom-build && $(MAKE) $(MAKESILENT) -f src\flap_controller_individual_aep_u_f\CMakeFiles\individual_flap_controller.dir\build.make src/flap_controller_individual_aep_u_f/CMakeFiles/individual_flap_controller.dir/__/__/utils/utils/string_utils.f90.i
.PHONY : __/__/utils/utils/string_utils.f90.i

__/__/utils/utils/string_utils.s: __/__/utils/utils/string_utils.f90.s
.PHONY : __/__/utils/utils/string_utils.s

# target to generate assembly for a file
__/__/utils/utils/string_utils.f90.s:
	cd /d C:\Users\valentinc\Workspace\OpenFAST\SuperController\DTUWEC-SC-mpi\custom-build && $(MAKE) $(MAKESILENT) -f src\flap_controller_individual_aep_u_f\CMakeFiles\individual_flap_controller.dir\build.make src/flap_controller_individual_aep_u_f/CMakeFiles/individual_flap_controller.dir/__/__/utils/utils/string_utils.f90.s
.PHONY : __/__/utils/utils/string_utils.f90.s

__/__/utils/version/BuildInfo.obj: __/__/utils/version/BuildInfo.f90.obj
.PHONY : __/__/utils/version/BuildInfo.obj

# target to build an object file
__/__/utils/version/BuildInfo.f90.obj:
	cd /d C:\Users\valentinc\Workspace\OpenFAST\SuperController\DTUWEC-SC-mpi\custom-build && $(MAKE) $(MAKESILENT) -f src\flap_controller_individual_aep_u_f\CMakeFiles\individual_flap_controller.dir\build.make src/flap_controller_individual_aep_u_f/CMakeFiles/individual_flap_controller.dir/__/__/utils/version/BuildInfo.f90.obj
.PHONY : __/__/utils/version/BuildInfo.f90.obj

__/__/utils/version/BuildInfo.i: __/__/utils/version/BuildInfo.f90.i
.PHONY : __/__/utils/version/BuildInfo.i

# target to preprocess a source file
__/__/utils/version/BuildInfo.f90.i:
	cd /d C:\Users\valentinc\Workspace\OpenFAST\SuperController\DTUWEC-SC-mpi\custom-build && $(MAKE) $(MAKESILENT) -f src\flap_controller_individual_aep_u_f\CMakeFiles\individual_flap_controller.dir\build.make src/flap_controller_individual_aep_u_f/CMakeFiles/individual_flap_controller.dir/__/__/utils/version/BuildInfo.f90.i
.PHONY : __/__/utils/version/BuildInfo.f90.i

__/__/utils/version/BuildInfo.s: __/__/utils/version/BuildInfo.f90.s
.PHONY : __/__/utils/version/BuildInfo.s

# target to generate assembly for a file
__/__/utils/version/BuildInfo.f90.s:
	cd /d C:\Users\valentinc\Workspace\OpenFAST\SuperController\DTUWEC-SC-mpi\custom-build && $(MAKE) $(MAKESILENT) -f src\flap_controller_individual_aep_u_f\CMakeFiles\individual_flap_controller.dir\build.make src/flap_controller_individual_aep_u_f/CMakeFiles/individual_flap_controller.dir/__/__/utils/version/BuildInfo.f90.s
.PHONY : __/__/utils/version/BuildInfo.f90.s

__/__/utils/version/version.obj: __/__/utils/version/version.rc.obj
.PHONY : __/__/utils/version/version.obj

# target to build an object file
__/__/utils/version/version.rc.obj:
	cd /d C:\Users\valentinc\Workspace\OpenFAST\SuperController\DTUWEC-SC-mpi\custom-build && $(MAKE) $(MAKESILENT) -f src\flap_controller_individual_aep_u_f\CMakeFiles\individual_flap_controller.dir\build.make src/flap_controller_individual_aep_u_f/CMakeFiles/individual_flap_controller.dir/__/__/utils/version/version.rc.obj
.PHONY : __/__/utils/version/version.rc.obj

__/modules/global_constants.obj: __/modules/global_constants.f90.obj
.PHONY : __/modules/global_constants.obj

# target to build an object file
__/modules/global_constants.f90.obj:
	cd /d C:\Users\valentinc\Workspace\OpenFAST\SuperController\DTUWEC-SC-mpi\custom-build && $(MAKE) $(MAKESILENT) -f src\flap_controller_individual_aep_u_f\CMakeFiles\individual_flap_controller.dir\build.make src/flap_controller_individual_aep_u_f/CMakeFiles/individual_flap_controller.dir/__/modules/global_constants.f90.obj
.PHONY : __/modules/global_constants.f90.obj

__/modules/global_constants.i: __/modules/global_constants.f90.i
.PHONY : __/modules/global_constants.i

# target to preprocess a source file
__/modules/global_constants.f90.i:
	cd /d C:\Users\valentinc\Workspace\OpenFAST\SuperController\DTUWEC-SC-mpi\custom-build && $(MAKE) $(MAKESILENT) -f src\flap_controller_individual_aep_u_f\CMakeFiles\individual_flap_controller.dir\build.make src/flap_controller_individual_aep_u_f/CMakeFiles/individual_flap_controller.dir/__/modules/global_constants.f90.i
.PHONY : __/modules/global_constants.f90.i

__/modules/global_constants.s: __/modules/global_constants.f90.s
.PHONY : __/modules/global_constants.s

# target to generate assembly for a file
__/modules/global_constants.f90.s:
	cd /d C:\Users\valentinc\Workspace\OpenFAST\SuperController\DTUWEC-SC-mpi\custom-build && $(MAKE) $(MAKESILENT) -f src\flap_controller_individual_aep_u_f\CMakeFiles\individual_flap_controller.dir\build.make src/flap_controller_individual_aep_u_f/CMakeFiles/individual_flap_controller.dir/__/modules/global_constants.f90.s
.PHONY : __/modules/global_constants.f90.s

__/modules/global_variables.obj: __/modules/global_variables.f90.obj
.PHONY : __/modules/global_variables.obj

# target to build an object file
__/modules/global_variables.f90.obj:
	cd /d C:\Users\valentinc\Workspace\OpenFAST\SuperController\DTUWEC-SC-mpi\custom-build && $(MAKE) $(MAKESILENT) -f src\flap_controller_individual_aep_u_f\CMakeFiles\individual_flap_controller.dir\build.make src/flap_controller_individual_aep_u_f/CMakeFiles/individual_flap_controller.dir/__/modules/global_variables.f90.obj
.PHONY : __/modules/global_variables.f90.obj

__/modules/global_variables.i: __/modules/global_variables.f90.i
.PHONY : __/modules/global_variables.i

# target to preprocess a source file
__/modules/global_variables.f90.i:
	cd /d C:\Users\valentinc\Workspace\OpenFAST\SuperController\DTUWEC-SC-mpi\custom-build && $(MAKE) $(MAKESILENT) -f src\flap_controller_individual_aep_u_f\CMakeFiles\individual_flap_controller.dir\build.make src/flap_controller_individual_aep_u_f/CMakeFiles/individual_flap_controller.dir/__/modules/global_variables.f90.i
.PHONY : __/modules/global_variables.f90.i

__/modules/global_variables.s: __/modules/global_variables.f90.s
.PHONY : __/modules/global_variables.s

# target to generate assembly for a file
__/modules/global_variables.f90.s:
	cd /d C:\Users\valentinc\Workspace\OpenFAST\SuperController\DTUWEC-SC-mpi\custom-build && $(MAKE) $(MAKESILENT) -f src\flap_controller_individual_aep_u_f\CMakeFiles\individual_flap_controller.dir\build.make src/flap_controller_individual_aep_u_f/CMakeFiles/individual_flap_controller.dir/__/modules/global_variables.f90.s
.PHONY : __/modules/global_variables.f90.s

__/modules/misc_mod.obj: __/modules/misc_mod.f90.obj
.PHONY : __/modules/misc_mod.obj

# target to build an object file
__/modules/misc_mod.f90.obj:
	cd /d C:\Users\valentinc\Workspace\OpenFAST\SuperController\DTUWEC-SC-mpi\custom-build && $(MAKE) $(MAKESILENT) -f src\flap_controller_individual_aep_u_f\CMakeFiles\individual_flap_controller.dir\build.make src/flap_controller_individual_aep_u_f/CMakeFiles/individual_flap_controller.dir/__/modules/misc_mod.f90.obj
.PHONY : __/modules/misc_mod.f90.obj

__/modules/misc_mod.i: __/modules/misc_mod.f90.i
.PHONY : __/modules/misc_mod.i

# target to preprocess a source file
__/modules/misc_mod.f90.i:
	cd /d C:\Users\valentinc\Workspace\OpenFAST\SuperController\DTUWEC-SC-mpi\custom-build && $(MAKE) $(MAKESILENT) -f src\flap_controller_individual_aep_u_f\CMakeFiles\individual_flap_controller.dir\build.make src/flap_controller_individual_aep_u_f/CMakeFiles/individual_flap_controller.dir/__/modules/misc_mod.f90.i
.PHONY : __/modules/misc_mod.f90.i

__/modules/misc_mod.s: __/modules/misc_mod.f90.s
.PHONY : __/modules/misc_mod.s

# target to generate assembly for a file
__/modules/misc_mod.f90.s:
	cd /d C:\Users\valentinc\Workspace\OpenFAST\SuperController\DTUWEC-SC-mpi\custom-build && $(MAKE) $(MAKESILENT) -f src\flap_controller_individual_aep_u_f\CMakeFiles\individual_flap_controller.dir\build.make src/flap_controller_individual_aep_u_f/CMakeFiles/individual_flap_controller.dir/__/modules/misc_mod.f90.s
.PHONY : __/modules/misc_mod.f90.s

__/modules/user_defined_types.obj: __/modules/user_defined_types.f90.obj
.PHONY : __/modules/user_defined_types.obj

# target to build an object file
__/modules/user_defined_types.f90.obj:
	cd /d C:\Users\valentinc\Workspace\OpenFAST\SuperController\DTUWEC-SC-mpi\custom-build && $(MAKE) $(MAKESILENT) -f src\flap_controller_individual_aep_u_f\CMakeFiles\individual_flap_controller.dir\build.make src/flap_controller_individual_aep_u_f/CMakeFiles/individual_flap_controller.dir/__/modules/user_defined_types.f90.obj
.PHONY : __/modules/user_defined_types.f90.obj

__/modules/user_defined_types.i: __/modules/user_defined_types.f90.i
.PHONY : __/modules/user_defined_types.i

# target to preprocess a source file
__/modules/user_defined_types.f90.i:
	cd /d C:\Users\valentinc\Workspace\OpenFAST\SuperController\DTUWEC-SC-mpi\custom-build && $(MAKE) $(MAKESILENT) -f src\flap_controller_individual_aep_u_f\CMakeFiles\individual_flap_controller.dir\build.make src/flap_controller_individual_aep_u_f/CMakeFiles/individual_flap_controller.dir/__/modules/user_defined_types.f90.i
.PHONY : __/modules/user_defined_types.f90.i

__/modules/user_defined_types.s: __/modules/user_defined_types.f90.s
.PHONY : __/modules/user_defined_types.s

# target to generate assembly for a file
__/modules/user_defined_types.f90.s:
	cd /d C:\Users\valentinc\Workspace\OpenFAST\SuperController\DTUWEC-SC-mpi\custom-build && $(MAKE) $(MAKESILENT) -f src\flap_controller_individual_aep_u_f\CMakeFiles\individual_flap_controller.dir\build.make src/flap_controller_individual_aep_u_f/CMakeFiles/individual_flap_controller.dir/__/modules/user_defined_types.f90.s
.PHONY : __/modules/user_defined_types.f90.s

flap_controller_individual_aep_u_f.obj: flap_controller_individual_aep_u_f.f90.obj
.PHONY : flap_controller_individual_aep_u_f.obj

# target to build an object file
flap_controller_individual_aep_u_f.f90.obj:
	cd /d C:\Users\valentinc\Workspace\OpenFAST\SuperController\DTUWEC-SC-mpi\custom-build && $(MAKE) $(MAKESILENT) -f src\flap_controller_individual_aep_u_f\CMakeFiles\individual_flap_controller.dir\build.make src/flap_controller_individual_aep_u_f/CMakeFiles/individual_flap_controller.dir/flap_controller_individual_aep_u_f.f90.obj
.PHONY : flap_controller_individual_aep_u_f.f90.obj

flap_controller_individual_aep_u_f.i: flap_controller_individual_aep_u_f.f90.i
.PHONY : flap_controller_individual_aep_u_f.i

# target to preprocess a source file
flap_controller_individual_aep_u_f.f90.i:
	cd /d C:\Users\valentinc\Workspace\OpenFAST\SuperController\DTUWEC-SC-mpi\custom-build && $(MAKE) $(MAKESILENT) -f src\flap_controller_individual_aep_u_f\CMakeFiles\individual_flap_controller.dir\build.make src/flap_controller_individual_aep_u_f/CMakeFiles/individual_flap_controller.dir/flap_controller_individual_aep_u_f.f90.i
.PHONY : flap_controller_individual_aep_u_f.f90.i

flap_controller_individual_aep_u_f.s: flap_controller_individual_aep_u_f.f90.s
.PHONY : flap_controller_individual_aep_u_f.s

# target to generate assembly for a file
flap_controller_individual_aep_u_f.f90.s:
	cd /d C:\Users\valentinc\Workspace\OpenFAST\SuperController\DTUWEC-SC-mpi\custom-build && $(MAKE) $(MAKESILENT) -f src\flap_controller_individual_aep_u_f\CMakeFiles\individual_flap_controller.dir\build.make src/flap_controller_individual_aep_u_f/CMakeFiles/individual_flap_controller.dir/flap_controller_individual_aep_u_f.f90.s
.PHONY : flap_controller_individual_aep_u_f.f90.s

# Help Target
help:
	@echo The following are some of the valid targets for this Makefile:
	@echo ... all (the default if no target is provided)
	@echo ... clean
	@echo ... depend
	@echo ... edit_cache
	@echo ... rebuild_cache
	@echo ... individual_flap_controller
	@echo ... __/__/utils/io/dll_utils.obj
	@echo ... __/__/utils/io/dll_utils.i
	@echo ... __/__/utils/io/dll_utils.s
	@echo ... __/__/utils/io/logging.obj
	@echo ... __/__/utils/io/logging.i
	@echo ... __/__/utils/io/logging.s
	@echo ... __/__/utils/io/path_utils.obj
	@echo ... __/__/utils/io/path_utils.i
	@echo ... __/__/utils/io/path_utils.s
	@echo ... __/__/utils/portability/dfwin_gfortran.obj
	@echo ... __/__/utils/portability/dfwin_gfortran.i
	@echo ... __/__/utils/portability/dfwin_gfortran.s
	@echo ... __/__/utils/portability/filesystem_tools_gfortran.obj
	@echo ... __/__/utils/portability/filesystem_tools_gfortran.i
	@echo ... __/__/utils/portability/filesystem_tools_gfortran.s
	@echo ... __/__/utils/utils/string_utils.obj
	@echo ... __/__/utils/utils/string_utils.i
	@echo ... __/__/utils/utils/string_utils.s
	@echo ... __/__/utils/version/BuildInfo.obj
	@echo ... __/__/utils/version/BuildInfo.i
	@echo ... __/__/utils/version/BuildInfo.s
	@echo ... __/__/utils/version/version.obj
	@echo ... __/modules/global_constants.obj
	@echo ... __/modules/global_constants.i
	@echo ... __/modules/global_constants.s
	@echo ... __/modules/global_variables.obj
	@echo ... __/modules/global_variables.i
	@echo ... __/modules/global_variables.s
	@echo ... __/modules/misc_mod.obj
	@echo ... __/modules/misc_mod.i
	@echo ... __/modules/misc_mod.s
	@echo ... __/modules/user_defined_types.obj
	@echo ... __/modules/user_defined_types.i
	@echo ... __/modules/user_defined_types.s
	@echo ... flap_controller_individual_aep_u_f.obj
	@echo ... flap_controller_individual_aep_u_f.i
	@echo ... flap_controller_individual_aep_u_f.s
.PHONY : help



#=============================================================================
# Special targets to cleanup operation of make.

# Special rule to run CMake to check the build system integrity.
# No rule that depends on this can have commands that come from listfiles
# because they might be regenerated.
cmake_check_build_system:
	cd /d C:\Users\valentinc\Workspace\OpenFAST\SuperController\DTUWEC-SC-mpi\custom-build && $(CMAKE_COMMAND) -S$(CMAKE_SOURCE_DIR) -B$(CMAKE_BINARY_DIR) --check-build-system CMakeFiles\Makefile.cmake 0
.PHONY : cmake_check_build_system

