-IC:/Users/valentinc/Workspace/OpenFAST/SuperController/DTUWEC-SC-mpi/src/individual_pitch_controller -IC:/Users/valentinc/Workspace/OpenFAST/SuperController/DTUWEC-SC-mpi/custom-build/src/individual_pitch_controller -IC:/Users/valentinc/Workspace/OpenFAST/SuperController/DTUWEC-SC-mpi/utils/portability 
