# CMAKE generated file: DO NOT EDIT!
# Generated by "MinGW Makefiles" Generator, CMake Version 3.30

# compile Fortran with C:/Users/valentinc/msys2/mingw64/bin/gfortran.exe
# compile RC with C:/Users/valentinc/msys2/mingw64/bin/windres.exe
Fortran_DEFINES = -D_WIN32 -D_WIN64 -Dflap_controller_cyclic_EXPORTS

Fortran_INCLUDES = @CMakeFiles/flap_controller_cyclic.dir/includes_Fortran.rsp

Fortran_FLAGS = -O3 -march=native -static -fcheck=bounds -fno-asynchronous-unwind-tables -cpp -ffree-form -ffree-line-length-none -fPIC -fcray-pointer

RC_DEFINES = -D_WIN32 -D_WIN64 -Dflap_controller_cyclic_EXPORTS

RC_INCLUDES = -I C:\Users\valentinc\Workspace\OpenFAST\SuperController\DTUWEC-SC-mpi\src\flap_controller_cyclic -I C:\Users\valentinc\Workspace\OpenFAST\SuperController\DTUWEC-SC-mpi\custom-build\src\flap_controller_cyclic -I C:\Users\valentinc\Workspace\OpenFAST\SuperController\DTUWEC-SC-mpi\utils\portability

RC_FLAGS = 

