-I"C:/Users/valentinc/Workspace/OpenFAST/SuperController/DTUWEC-SC-mpi/src/flap_controller_cyclic" -I"C:/Users/valentinc/Workspace/OpenFAST/SuperController/DTUWEC-SC-mpi/custom-build/src/flap_controller_cyclic" -I"C:/Users/valentinc/Workspace/OpenFAST/SuperController/DTUWEC-SC-mpi/utils/portability"
