#IncludeRegexLine: ^[ 	]*[#%][ 	]*(include|import)[ 	]*[<"]([^">]+)([">])

#IncludeRegexScan: ^.*$

#IncludeRegexComplain: ^$

#IncludeRegexTransform: 

C:/Users/valentinc/Workspace/OpenFAST/SuperController/DTUWEC-SC-mpi/src/flap_controller_cyclic/file_info.h

C:/Users/valentinc/Workspace/OpenFAST/SuperController/DTUWEC-SC-mpi/utils/version/version.h

C:/Users/valentinc/Workspace/OpenFAST/SuperController/DTUWEC-SC-mpi/utils/version/version.rc
winver.h
C:/Users/valentinc/Workspace/OpenFAST/SuperController/DTUWEC-SC-mpi/utils/version/winver.h
version.h
C:/Users/valentinc/Workspace/OpenFAST/SuperController/DTUWEC-SC-mpi/utils/version/version.h
file_info.h
C:/Users/valentinc/Workspace/OpenFAST/SuperController/DTUWEC-SC-mpi/utils/version/file_info.h

